/*---------------------------------------------------------------------------*\
| =========                 |                                                 |
| \\      /  F ield         | OpenFOAM: The Open Source CFD Toolbox           |
|  \\    /   O peration     | Version:  2112                                  |
|   \\  /    A nd           | Website:  www.openfoam.com                      |
|    \\/     M anipulation  |                                                 |
\*---------------------------------------------------------------------------*/
Build  : _80318542-20220301 OPENFOAM=2112 patch=220310 version=2112
Arch   : "LSB;label=32;scalar=64"
Exec   : reactingFoam -parallel
Date   : Apr 18 2022
Time   : 21:49:22
Host   : duanwuchen-HP-ZBook-Studio-G7-Mobile-Workstation
PID    : 80970
I/O    : uncollated
Case   : /home/duanwuchen/OpenFOAM/duanwuchen-v2112/run/research/swirl_openfoam/cases/swril_react
nProcs : 4
Hosts  :
(
    (duanwuchen-HP-ZBook-Studio-G7-Mobile-Workstation 4)
)
Pstream initialized with:
    floatTransfer      : 0
    nProcsSimpleSum    : 0
    commsType          : nonBlocking
    polling iterations : 0
trapFpe: Floating point exception trapping enabled (FOAM_SIGFPE).
fileModificationChecking : Monitoring run-time modified files using timeStampMaster (fileModificationSkew 5, maxFileModificationPolls 20)
allowSystemOperations : Allowing user-supplied system call operations

// * * * * * * * * * * * * * * * * * * * * * * * * * * * * * * * * * * * * * //
Create time

Create mesh for time = 0


PIMPLE: Operating solver in PISO mode

Using LTS
Reading thermophysical properties

Selecting thermodynamics package 
{
    type            hePsiThermo;
    mixture         reactingMixture;
    transport       sutherland;
    thermo          janaf;
    energy          sensibleEnthalpy;
    equationOfState perfectGas;
    specie          specie;
}

Selecting chemistryReader foamChemistryReader
--> FOAM Warning : 
    From void Foam::multiComponentMixture<ThermoType>::correctMassFractions() [with ThermoType = Foam::sutherlandTransport<Foam::species::thermo<Foam::janafThermo<Foam::perfectGas<Foam::specie> >, Foam::sensibleEnthalpy> >]
    in file lnInclude/multiComponentMixture.C at line 72
    Sum of mass fractions is different from one for species 
36
(
H2
H
O
O2
OH
H2O
HO2
H2O2
C
CH
CH2
CH2(S)
CH3
CH4
CO
CO2
HCO
CH2O
CH2OH
CH3O
CH3OH
C2H
C2H2
C2H3
C2H4
C2H5
C2H6
HCCO
CH2CO
HCCOH
N2
AR
C3H7
C3H8
CH2CHO
CH3CHO
)

Reading field U

Reading/calculating face flux field phi

Creating turbulence model.

Selecting turbulence model type RAS
Selecting RAS turbulence model kEpsilon
RAS
{
    RASModel        kEpsilon;
    turbulence      on;
    printCoeffs     on;
    Cmu             0.09;
    C1              1.44;
    C2              1.92;
    C3              0;
    sigmak          1;
    sigmaEps        1.3;
}

Creating reaction model

Selecting combustion model EDC
Selecting chemistry solver 
{
    solver          ode;
    method          TDAC;
}

StandardChemistryModel: Number of species = 36 and reactions = 219
Selecting chemistry reduction method DAC
    element Ar not considered
Selecting chemistry tabulation method ISAT
Selecting ODE solver seulex
    using integrated reaction rate
Creating field dpdt

Creating field kinetic energy K

No MRF models present

Creating finite volume options from "constant/fvOptions"

Selecting finite volume options type radiation
    Source: radiation
Selecting radiationModel P1
Selecting absorptionEmissionModel greyMeanAbsorptionEmission
Selecting scatterModel none
Selecting sootModel none

Starting time loop

Time scales min/max:
    Flow        = 1.92631119e-05, 0.0001
    Temperature = 1e+300, 1e+300
    Composition = 1e+300, 1e+300
    Overall     = 1.92631119e-05, 0.0001
Time = 1

diagonal:  Solving for rho, Initial residual = 0, Final residual = 0, No Iterations 0
PIMPLE: iteration 1
DILUPBiCGStab:  Solving for Ux, Initial residual = 1, Final residual = 0.01848192011, No Iterations 1
DILUPBiCGStab:  Solving for Uy, Initial residual = 1, Final residual = 0.01792388541, No Iterations 1
DILUPBiCGStab:  Solving for Uz, Initial residual = 1, Final residual = 0.01140996966, No Iterations 1
Chemistry time solved max/min : 1.201615591e-05 / 8.817447824e-06
DILUPBiCGStab:  Solving for H2, Initial residual = 0, Final residual = 0, No Iterations 0
DILUPBiCGStab:  Solving for H, Initial residual = 0, Final residual = 0, No Iterations 0
DILUPBiCGStab:  Solving for O, Initial residual = 0, Final residual = 0, No Iterations 0
DILUPBiCGStab:  Solving for O2, Initial residual = 0.9999999999, Final residual = 0.01184293128, No Iterations 1
DILUPBiCGStab:  Solving for OH, Initial residual = 0, Final residual = 0, No Iterations 0
DILUPBiCGStab:  Solving for H2O, Initial residual = 0, Final residual = 0, No Iterations 0
DILUPBiCGStab:  Solving for CH4, Initial residual = 1, Final residual = 0.01029791145, No Iterations 1
DILUPBiCGStab:  Solving for CO, Initial residual = 0, Final residual = 0, No Iterations 0
DILUPBiCGStab:  Solving for CO2, Initial residual = 0, Final residual = 0, No Iterations 0
Selecting boundary radiation Model: lookup
Selecting boundary radiation Model: lookup
Selecting boundary radiation Model: lookup
Selecting boundary radiation Model: lookup
Selecting boundary radiation Model: lookup
Selecting boundary radiation Model: lookup
Selecting boundary radiation Model: lookup
Selecting boundary radiation Model: lookup
Selecting boundary radiation Model: lookup
Selecting boundary radiation Model: lookup
DICPCG:  Solving for G, Initial residual = 1, Final residual = 8.986251974e-06, No Iterations 367
DILUPBiCGStab:  Solving for h, Initial residual = 1, Final residual = 0.009933412486, No Iterations 1
min/max(T) = 290.9835398, 300
DICPCG:  Solving for p, Initial residual = 0.9999999987, Final residual = 0.009318881598, No Iterations 92
diagonal:  Solving for rho, Initial residual = 0, Final residual = 0, No Iterations 0
time step continuity errors : sum local = 5.18589901e-05, global = -5.03731038e-05, cumulative = -5.03731038e-05
DICPCG:  Solving for p, Initial residual = 0.05776649749, Final residual = 0.0005651007611, No Iterations 67
diagonal:  Solving for rho, Initial residual = 0, Final residual = 0, No Iterations 0
time step continuity errors : sum local = 5.324562433e-05, global = -5.008342603e-05, cumulative = -0.0001004565298
DICPCG:  Solving for p, Initial residual = 0.04497733351, Final residual = 9.236370294e-08, No Iterations 154
diagonal:  Solving for rho, Initial residual = 0, Final residual = 0, No Iterations 0
time step continuity errors : sum local = 5.090028906e-05, global = -5.066510015e-05, cumulative = -0.00015112163
DILUPBiCGStab:  Solving for epsilon, Initial residual = 0.1352866895, Final residual = 0.005053540751, No Iterations 2
DILUPBiCGStab:  Solving for k, Initial residual = 1, Final residual = 0.03409402349, No Iterations 1
ExecutionTime = 8.47 s  ClockTime = 9 s

Time scales min/max:
    Flow        = 5.571648731e-06, 0.0001
    Temperature = 1e+300, 1e+300
    Composition = 1e+300, 1e+300
    Overall     = 5.571648731e-06, 0.0001
Time = 2

diagonal:  Solving for rho, Initial residual = 0, Final residual = 0, No Iterations 0
PIMPLE: iteration 1
DILUPBiCGStab:  Solving for Ux, Initial residual = 0.3348897407, Final residual = 0.01271011712, No Iterations 2
DILUPBiCGStab:  Solving for Uy, Initial residual = 0.3317614889, Final residual = 0.01216251982, No Iterations 2
DILUPBiCGStab:  Solving for Uz, Initial residual = 0.1664881302, Final residual = 0.00821509652, No Iterations 1
Chemistry time solved max/min : 0.0003120875581 / 5.70686637e-07
DILUPBiCGStab:  Solving for H2, Initial residual = 0, Final residual = 0, No Iterations 0
DILUPBiCGStab:  Solving for H, Initial residual = 0, Final residual = 0, No Iterations 0
DILUPBiCGStab:  Solving for O, Initial residual = 0, Final residual = 0, No Iterations 0
DILUPBiCGStab:  Solving for O2, Initial residual = 0.02748320858, Final residual = 0.0008909507078, No Iterations 2
DILUPBiCGStab:  Solving for OH, Initial residual = 0, Final residual = 0, No Iterations 0
DILUPBiCGStab:  Solving for H2O, Initial residual = 0, Final residual = 0, No Iterations 0
DILUPBiCGStab:  Solving for CH4, Initial residual = 0.02064787969, Final residual = 0.000810304898, No Iterations 2
DILUPBiCGStab:  Solving for CO, Initial residual = 0, Final residual = 0, No Iterations 0
DILUPBiCGStab:  Solving for CO2, Initial residual = 0, Final residual = 0, No Iterations 0
DICPCG:  Solving for G, Initial residual = 0.1603841691, Final residual = 9.958344262e-06, No Iterations 308
DILUPBiCGStab:  Solving for h, Initial residual = 0.04233425218, Final residual = 0.001807762635, No Iterations 1
min/max(T) = 289.8538199, 300.1362867
DICPCG:  Solving for p, Initial residual = 0.2111536125, Final residual = 0.002038583769, No Iterations 68
diagonal:  Solving for rho, Initial residual = 0, Final residual = 0, No Iterations 0
time step continuity errors : sum local = 4.612059007e-06, global = 1.355366251e-06, cumulative = -0.0001497662637
DICPCG:  Solving for p, Initial residual = 0.0954074177, Final residual = 0.0009353329524, No Iterations 53
diagonal:  Solving for rho, Initial residual = 0, Final residual = 0, No Iterations 0
time step continuity errors : sum local = 1.383519714e-06, global = 5.250917315e-07, cumulative = -0.000149241172
DICPCG:  Solving for p, Initial residual = 0.0300632475, Final residual = 9.49650408e-08, No Iterations 158
diagonal:  Solving for rho, Initial residual = 0, Final residual = 0, No Iterations 0
time step continuity errors : sum local = 1.819229973e-10, global = 1.366668116e-12, cumulative = -0.0001492411706
DILUPBiCGStab:  Solving for epsilon, Initial residual = 0.03169335614, Final residual = 0.001231362795, No Iterations 1
DILUPBiCGStab:  Solving for k, Initial residual = 0.4067568024, Final residual = 0.01480471257, No Iterations 1
ExecutionTime = 16.63 s  ClockTime = 17 s

Time scales min/max:
    Flow        = 2.30936211e-06, 0.0001
    Temperature = 1e+300, 1e+300
    Composition = 1e+300, 1e+300
    Overall     = 2.30936211e-06, 0.0001
Time = 3

diagonal:  Solving for rho, Initial residual = 0, Final residual = 0, No Iterations 0
PIMPLE: iteration 1
DILUPBiCGStab:  Solving for Ux, Initial residual = 0.1070772831, Final residual = 0.001617496173, No Iterations 1
DILUPBiCGStab:  Solving for Uy, Initial residual = 0.1074486568, Final residual = 0.001563336674, No Iterations 1
DILUPBiCGStab:  Solving for Uz, Initial residual = 0.07389066582, Final residual = 0.0007780856624, No Iterations 1
Chemistry time solved max/min : 0.0001242401862 / 6.284191989e-07
DILUPBiCGStab:  Solving for H2, Initial residual = 0, Final residual = 0, No Iterations 0
DILUPBiCGStab:  Solving for H, Initial residual = 0, Final residual = 0, No Iterations 0
DILUPBiCGStab:  Solving for O, Initial residual = 0, Final residual = 0, No Iterations 0
DILUPBiCGStab:  Solving for O2, Initial residual = 0.01346330385, Final residual = 0.000505817443, No Iterations 1
DILUPBiCGStab:  Solving for OH, Initial residual = 0, Final residual = 0, No Iterations 0
DILUPBiCGStab:  Solving for H2O, Initial residual = 0, Final residual = 0, No Iterations 0
DILUPBiCGStab:  Solving for CH4, Initial residual = 0.009423616471, Final residual = 0.000421320004, No Iterations 1
DILUPBiCGStab:  Solving for CO, Initial residual = 0, Final residual = 0, No Iterations 0
DILUPBiCGStab:  Solving for CO2, Initial residual = 0, Final residual = 0, No Iterations 0
DICPCG:  Solving for G, Initial residual = 0.04610119078, Final residual = 9.767518789e-06, No Iterations 312
DILUPBiCGStab:  Solving for h, Initial residual = 0.03529378411, Final residual = 0.0009478394597, No Iterations 1
min/max(T) = 290.738223, 300.1073089
DICPCG:  Solving for p, Initial residual = 0.0880442557, Final residual = 0.0008780422862, No Iterations 66
diagonal:  Solving for rho, Initial residual = 0, Final residual = 0, No Iterations 0
time step continuity errors : sum local = 1.899144819e-06, global = 2.162568119e-07, cumulative = -0.0001490249138
DICPCG:  Solving for p, Initial residual = 0.01497880103, Final residual = 0.0001478014424, No Iterations 40
diagonal:  Solving for rho, Initial residual = 0, Final residual = 0, No Iterations 0
time step continuity errors : sum local = 2.711441946e-07, global = -1.615178012e-07, cumulative = -0.0001491864316
DICPCG:  Solving for p, Initial residual = 0.005215967461, Final residual = 9.058206602e-08, No Iterations 129
diagonal:  Solving for rho, Initial residual = 0, Final residual = 0, No Iterations 0
time step continuity errors : sum local = 1.593658506e-10, global = 1.186570231e-11, cumulative = -0.0001491864198
DILUPBiCGStab:  Solving for epsilon, Initial residual = 0.01968100248, Final residual = 0.0001733059287, No Iterations 1
DILUPBiCGStab:  Solving for k, Initial residual = 0.1521418263, Final residual = 0.004652800812, No Iterations 1
ExecutionTime = 23.79 s  ClockTime = 24 s

Time scales min/max:
    Flow        = 2.703575723e-06, 0.0001
    Temperature = 1e+300, 1e+300
    Composition = 1e+300, 1e+300
    Overall     = 2.703575723e-06, 0.0001
Time = 4

diagonal:  Solving for rho, Initial residual = 0, Final residual = 0, No Iterations 0
PIMPLE: iteration 1
DILUPBiCGStab:  Solving for Ux, Initial residual = 0.1131691945, Final residual = 0.002097777624, No Iterations 1
DILUPBiCGStab:  Solving for Uy, Initial residual = 0.1120256465, Final residual = 0.002056403433, No Iterations 1
DILUPBiCGStab:  Solving for Uz, Initial residual = 0.092661259, Final residual = 0.002049200812, No Iterations 1
Chemistry time solved max/min : 0.0001211890604 / 1.34165962e-06
DILUPBiCGStab:  Solving for H2, Initial residual = 0, Final residual = 0, No Iterations 0
DILUPBiCGStab:  Solving for H, Initial residual = 0, Final residual = 0, No Iterations 0
DILUPBiCGStab:  Solving for O, Initial residual = 0, Final residual = 0, No Iterations 0
DILUPBiCGStab:  Solving for O2, Initial residual = 0.01271649402, Final residual = 0.000624590553, No Iterations 1
DILUPBiCGStab:  Solving for OH, Initial residual = 0, Final residual = 0, No Iterations 0
DILUPBiCGStab:  Solving for H2O, Initial residual = 0, Final residual = 0, No Iterations 0
DILUPBiCGStab:  Solving for CH4, Initial residual = 0.008801830645, Final residual = 0.0001921956862, No Iterations 2
DILUPBiCGStab:  Solving for CO, Initial residual = 0, Final residual = 0, No Iterations 0
DILUPBiCGStab:  Solving for CO2, Initial residual = 0, Final residual = 0, No Iterations 0
DICPCG:  Solving for G, Initial residual = 0.03653817122, Final residual = 9.705114533e-06, No Iterations 294
DILUPBiCGStab:  Solving for h, Initial residual = 0.03949150743, Final residual = 0.001464004359, No Iterations 1
min/max(T) = 291, 300.0699001
DICPCG:  Solving for p, Initial residual = 0.1049733364, Final residual = 0.001024155198, No Iterations 74
diagonal:  Solving for rho, Initial residual = 0, Final residual = 0, No Iterations 0
time step continuity errors : sum local = 1.439599308e-06, global = 1.448464081e-07, cumulative = -0.0001490415733
DICPCG:  Solving for p, Initial residual = 0.02297013055, Final residual = 0.0001923452266, No Iterations 48
diagonal:  Solving for rho, Initial residual = 0, Final residual = 0, No Iterations 0
time step continuity errors : sum local = 1.879580519e-07, global = -1.692909176e-09, cumulative = -0.0001490432663
DICPCG:  Solving for p, Initial residual = 0.009294697369, Final residual = 9.568021482e-08, No Iterations 139
diagonal:  Solving for rho, Initial residual = 0, Final residual = 0, No Iterations 0
time step continuity errors : sum local = 1.178585413e-10, global = 2.086763801e-12, cumulative = -0.0001490432642
DILUPBiCGStab:  Solving for epsilon, Initial residual = 0.0205997474, Final residual = 0.0002175724856, No Iterations 1
bounding epsilon, min: -55.3666422 max: 1189383.255 average: 93443.81696
DILUPBiCGStab:  Solving for k, Initial residual = 0.1383968335, Final residual = 0.004456483068, No Iterations 1
ExecutionTime = 31.08 s  ClockTime = 31 s

Time scales min/max:
    Flow        = 2.404713389e-06, 0.0001
    Temperature = 1e+300, 1e+300
    Composition = 1e+300, 1e+300
    Overall     = 2.404713389e-06, 0.0001
Time = 5

diagonal:  Solving for rho, Initial residual = 0, Final residual = 0, No Iterations 0
PIMPLE: iteration 1
DILUPBiCGStab:  Solving for Ux, Initial residual = 0.08231246465, Final residual = 0.001163333737, No Iterations 1
DILUPBiCGStab:  Solving for Uy, Initial residual = 0.08048885125, Final residual = 0.001150057145, No Iterations 1
DILUPBiCGStab:  Solving for Uz, Initial residual = 0.09292764428, Final residual = 0.001654181344, No Iterations 1
Chemistry time solved max/min : 0.0001425377034 / 1.596003862e-06
DILUPBiCGStab:  Solving for H2, Initial residual = 0, Final residual = 0, No Iterations 0
DILUPBiCGStab:  Solving for H, Initial residual = 0, Final residual = 0, No Iterations 0
DILUPBiCGStab:  Solving for O, Initial residual = 0, Final residual = 0, No Iterations 0
DILUPBiCGStab:  Solving for O2, Initial residual = 0.01012881772, Final residual = 0.0002201808579, No Iterations 2
DILUPBiCGStab:  Solving for OH, Initial residual = 0, Final residual = 0, No Iterations 0
DILUPBiCGStab:  Solving for H2O, Initial residual = 0, Final residual = 0, No Iterations 0
DILUPBiCGStab:  Solving for CH4, Initial residual = 0.00681955513, Final residual = 0.0001616340817, No Iterations 2
DILUPBiCGStab:  Solving for CO, Initial residual = 0, Final residual = 0, No Iterations 0
DILUPBiCGStab:  Solving for CO2, Initial residual = 0, Final residual = 0, No Iterations 0
DICPCG:  Solving for G, Initial residual = 0.03055191553, Final residual = 9.932125184e-06, No Iterations 295
DILUPBiCGStab:  Solving for h, Initial residual = 0.03411716203, Final residual = 0.001162353481, No Iterations 1
min/max(T) = 291, 300.0574659
DICPCG:  Solving for p, Initial residual = 0.1143623766, Final residual = 0.001101323871, No Iterations 75
diagonal:  Solving for rho, Initial residual = 0, Final residual = 0, No Iterations 0
time step continuity errors : sum local = 1.163520156e-06, global = 6.28363572e-08, cumulative = -0.0001489804278
DICPCG:  Solving for p, Initial residual = 0.0250623931, Final residual = 0.0002449409497, No Iterations 56
diagonal:  Solving for rho, Initial residual = 0, Final residual = 0, No Iterations 0
time step continuity errors : sum local = 2.116437817e-07, global = -1.042367353e-07, cumulative = -0.0001490846646
DICPCG:  Solving for p, Initial residual = 0.009606370293, Final residual = 9.228316149e-08, No Iterations 140
diagonal:  Solving for rho, Initial residual = 0, Final residual = 0, No Iterations 0
time step continuity errors : sum local = 7.37684574e-11, global = 6.098548496e-12, cumulative = -0.0001490846585
DILUPBiCGStab:  Solving for epsilon, Initial residual = 0.01868576145, Final residual = 0.0002030360496, No Iterations 1
bounding epsilon, min: -14.71616233 max: 961553.8255 average: 78073.1627
DILUPBiCGStab:  Solving for k, Initial residual = 0.1097300758, Final residual = 0.003436316941, No Iterations 1
ExecutionTime = 38.68 s  ClockTime = 39 s

Time scales min/max:
    Flow        = 2.503019999e-06, 0.0001
    Temperature = 1e+300, 1e+300
    Composition = 1e+300, 1e+300
    Overall     = 2.503019999e-06, 0.0001
Time = 6

diagonal:  Solving for rho, Initial residual = 0, Final residual = 0, No Iterations 0
PIMPLE: iteration 1
DILUPBiCGStab:  Solving for Ux, Initial residual = 0.05981843067, Final residual = 0.0007084560662, No Iterations 1
DILUPBiCGStab:  Solving for Uy, Initial residual = 0.05889806296, Final residual = 0.0006089894749, No Iterations 1
DILUPBiCGStab:  Solving for Uz, Initial residual = 0.08119194022, Final residual = 0.001669210096, No Iterations 1
Chemistry time solved max/min : 0.0005063030624 / 1.774754532e-06
DILUPBiCGStab:  Solving for H2, Initial residual = 0, Final residual = 0, No Iterations 0
DILUPBiCGStab:  Solving for H, Initial residual = 0, Final residual = 0, No Iterations 0
DILUPBiCGStab:  Solving for O, Initial residual = 0, Final residual = 0, No Iterations 0
DILUPBiCGStab:  Solving for O2, Initial residual = 0.008382290621, Final residual = 0.0002104134435, No Iterations 2
DILUPBiCGStab:  Solving for OH, Initial residual = 0, Final residual = 0, No Iterations 0
DILUPBiCGStab:  Solving for H2O, Initial residual = 0, Final residual = 0, No Iterations 0
DILUPBiCGStab:  Solving for CH4, Initial residual = 0.005626749096, Final residual = 0.0001483855555, No Iterations 2
DILUPBiCGStab:  Solving for CO, Initial residual = 0, Final residual = 0, No Iterations 0
DILUPBiCGStab:  Solving for CO2, Initial residual = 0, Final residual = 0, No Iterations 0
DICPCG:  Solving for G, Initial residual = 0.02651562322, Final residual = 9.324015967e-06, No Iterations 314
DILUPBiCGStab:  Solving for h, Initial residual = 0.03169143526, Final residual = 0.001008013533, No Iterations 1
min/max(T) = 291, 300.0382978
DICPCG:  Solving for p, Initial residual = 0.1842520636, Final residual = 0.001772792926, No Iterations 75
diagonal:  Solving for rho, Initial residual = 0, Final residual = 0, No Iterations 0
time step continuity errors : sum local = 1.153395469e-06, global = 4.649341687e-08, cumulative = -0.000149038165
DICPCG:  Solving for p, Initial residual = 0.04866430235, Final residual = 0.0004841718533, No Iterations 59
diagonal:  Solving for rho, Initial residual = 0, Final residual = 0, No Iterations 0
time step continuity errors : sum local = 1.8100578e-07, global = -6.126188827e-08, cumulative = -0.0001490994269
DICPCG:  Solving for p, Initial residual = 0.018035909, Final residual = 9.735569425e-08, No Iterations 143
diagonal:  Solving for rho, Initial residual = 0, Final residual = 0, No Iterations 0
time step continuity errors : sum local = 3.710509147e-11, global = 1.864666838e-13, cumulative = -0.0001490994267
DILUPBiCGStab:  Solving for epsilon, Initial residual = 0.01881122013, Final residual = 0.0002141058019, No Iterations 1
bounding epsilon, min: -0.3192963058 max: 769179.2035 average: 66367.28791
DILUPBiCGStab:  Solving for k, Initial residual = 0.0979242356, Final residual = 0.003076661995, No Iterations 1
bounding k, min: -0.002026211651 max: 28.73914703 average: 18.33372202
ExecutionTime = 46.48 s  ClockTime = 47 s

Time scales min/max:
    Flow        = 2.567439909e-06, 0.0001
    Temperature = 1e+300, 1e+300
    Composition = 1e+300, 1e+300
    Overall     = 2.567439909e-06, 0.0001
Time = 7

diagonal:  Solving for rho, Initial residual = 0, Final residual = 0, No Iterations 0
PIMPLE: iteration 1
DILUPBiCGStab:  Solving for Ux, Initial residual = 0.04758516307, Final residual = 0.0006617130442, No Iterations 1
DILUPBiCGStab:  Solving for Uy, Initial residual = 0.04597378822, Final residual = 0.0005340846251, No Iterations 1
DILUPBiCGStab:  Solving for Uz, Initial residual = 0.0645226748, Final residual = 0.001641756833, No Iterations 1
Chemistry time solved max/min : 0.0005127702188 / 1.984906436e-06
DILUPBiCGStab:  Solving for H2, Initial residual = 0, Final residual = 0, No Iterations 0
DILUPBiCGStab:  Solving for H, Initial residual = 0, Final residual = 0, No Iterations 0
DILUPBiCGStab:  Solving for O, Initial residual = 0, Final residual = 0, No Iterations 0
DILUPBiCGStab:  Solving for O2, Initial residual = 0.006811852227, Final residual = 0.0001702252018, No Iterations 2
DILUPBiCGStab:  Solving for OH, Initial residual = 0, Final residual = 0, No Iterations 0
DILUPBiCGStab:  Solving for H2O, Initial residual = 0, Final residual = 0, No Iterations 0
DILUPBiCGStab:  Solving for CH4, Initial residual = 0.004558107053, Final residual = 0.0001151417335, No Iterations 2
DILUPBiCGStab:  Solving for CO, Initial residual = 0, Final residual = 0, No Iterations 0
DILUPBiCGStab:  Solving for CO2, Initial residual = 0, Final residual = 0, No Iterations 0
DICPCG:  Solving for G, Initial residual = 0.02485776455, Final residual = 9.034115407e-06, No Iterations 317
DILUPBiCGStab:  Solving for h, Initial residual = 0.02794487151, Final residual = 0.0008395478819, No Iterations 1
min/max(T) = 291, 300.03291
DICPCG:  Solving for p, Initial residual = 0.3280742138, Final residual = 0.003147379514, No Iterations 74
diagonal:  Solving for rho, Initial residual = 0, Final residual = 0, No Iterations 0
time step continuity errors : sum local = 1.028086948e-06, global = 8.97163736e-09, cumulative = -0.0001490904551
DICPCG:  Solving for p, Initial residual = 0.04163275352, Final residual = 0.0003904503494, No Iterations 64
diagonal:  Solving for rho, Initial residual = 0, Final residual = 0, No Iterations 0
time step continuity errors : sum local = 1.845852336e-07, global = -1.189379013e-08, cumulative = -0.0001491023489
DICPCG:  Solving for p, Initial residual = 0.01578377405, Final residual = 9.744095721e-08, No Iterations 143
diagonal:  Solving for rho, Initial residual = 0, Final residual = 0, No Iterations 0
time step continuity errors : sum local = 4.928808853e-11, global = 2.054589052e-12, cumulative = -0.0001491023468
DILUPBiCGStab:  Solving for epsilon, Initial residual = 0.01891401444, Final residual = 0.0002215087917, No Iterations 1
bounding epsilon, min: -113.0224672 max: 678317.6829 average: 57527.31137
DILUPBiCGStab:  Solving for k, Initial residual = 0.0877717622, Final residual = 0.002741769573, No Iterations 1
bounding k, min: -0.00043624328 max: 28.33675001 average: 17.53180767
ExecutionTime = 53.82 s  ClockTime = 54 s

Time scales min/max:
    Flow        = 2.430374269e-06, 0.0001
    Temperature = 1e+300, 1e+300
    Composition = 1e+300, 1e+300
    Overall     = 2.430374269e-06, 0.0001
Time = 8

diagonal:  Solving for rho, Initial residual = 0, Final residual = 0, No Iterations 0
PIMPLE: iteration 1
DILUPBiCGStab:  Solving for Ux, Initial residual = 0.03415937408, Final residual = 0.000483660149, No Iterations 1
DILUPBiCGStab:  Solving for Uy, Initial residual = 0.03518278914, Final residual = 0.0004348144451, No Iterations 1
DILUPBiCGStab:  Solving for Uz, Initial residual = 0.05426955048, Final residual = 0.0015291451, No Iterations 1
Chemistry time solved max/min : 0.001068657762 / 2.114226047e-06
DILUPBiCGStab:  Solving for H2, Initial residual = 0, Final residual = 0, No Iterations 0
DILUPBiCGStab:  Solving for H, Initial residual = 0, Final residual = 0, No Iterations 0
DILUPBiCGStab:  Solving for O, Initial residual = 0, Final residual = 0, No Iterations 0
DILUPBiCGStab:  Solving for O2, Initial residual = 0.005531529564, Final residual = 0.0001261718757, No Iterations 2
DILUPBiCGStab:  Solving for OH, Initial residual = 0, Final residual = 0, No Iterations 0
DILUPBiCGStab:  Solving for H2O, Initial residual = 0, Final residual = 0, No Iterations 0
DILUPBiCGStab:  Solving for CH4, Initial residual = 0.003699990369, Final residual = 8.32397815e-05, No Iterations 2
DILUPBiCGStab:  Solving for CO, Initial residual = 0, Final residual = 0, No Iterations 0
DILUPBiCGStab:  Solving for CO2, Initial residual = 0, Final residual = 0, No Iterations 0
DICPCG:  Solving for G, Initial residual = 0.02312189193, Final residual = 9.227710951e-06, No Iterations 316
DILUPBiCGStab:  Solving for h, Initial residual = 0.02177471875, Final residual = 0.0006252525033, No Iterations 1
min/max(T) = 291, 300.0346002
DICPCG:  Solving for p, Initial residual = 0.1868264586, Final residual = 0.001730312728, No Iterations 69
diagonal:  Solving for rho, Initial residual = 0, Final residual = 0, No Iterations 0
time step continuity errors : sum local = 7.952933147e-07, global = -2.708211689e-08, cumulative = -0.000149129429
DICPCG:  Solving for p, Initial residual = 0.02637445336, Final residual = 0.0002626149713, No Iterations 61
diagonal:  Solving for rho, Initial residual = 0, Final residual = 0, No Iterations 0
time step continuity errors : sum local = 2.27447316e-07, global = -7.408526039e-09, cumulative = -0.0001491368375
DICPCG:  Solving for p, Initial residual = 0.01021617209, Final residual = 9.900337218e-08, No Iterations 138
diagonal:  Solving for rho, Initial residual = 0, Final residual = 0, No Iterations 0
time step continuity errors : sum local = 9.306103629e-11, global = 1.052223273e-12, cumulative = -0.0001491368364
DILUPBiCGStab:  Solving for epsilon, Initial residual = 0.01854131971, Final residual = 0.0002000427532, No Iterations 1
bounding epsilon, min: -37.81787128 max: 618637.8162 average: 50980.13401
DILUPBiCGStab:  Solving for k, Initial residual = 0.07758218521, Final residual = 0.002366124851, No Iterations 1
bounding k, min: -0.003622613235 max: 28.16226768 average: 16.83085167
ExecutionTime = 61.09 s  ClockTime = 61 s

Time scales min/max:
    Flow        = 2.350168814e-06, 0.0001
    Temperature = 1e+300, 1e+300
    Composition = 1e+300, 1e+300
    Overall     = 2.350168814e-06, 0.0001
Time = 9

diagonal:  Solving for rho, Initial residual = 0, Final residual = 0, No Iterations 0
PIMPLE: iteration 1
DILUPBiCGStab:  Solving for Ux, Initial residual = 0.05090743647, Final residual = 0.0005257540803, No Iterations 1
DILUPBiCGStab:  Solving for Uy, Initial residual = 0.05962235464, Final residual = 0.0005883526107, No Iterations 1
DILUPBiCGStab:  Solving for Uz, Initial residual = 0.06094295488, Final residual = 0.001403649004, No Iterations 1
Chemistry time solved max/min : 0.0004336913628 / 2.214045323e-06
DILUPBiCGStab:  Solving for H2, Initial residual = 0, Final residual = 0, No Iterations 0
DILUPBiCGStab:  Solving for H, Initial residual = 0, Final residual = 0, No Iterations 0
DILUPBiCGStab:  Solving for O, Initial residual = 0, Final residual = 0, No Iterations 0
DILUPBiCGStab:  Solving for O2, Initial residual = 0.004688703067, Final residual = 9.838958794e-05, No Iterations 2
DILUPBiCGStab:  Solving for OH, Initial residual = 0, Final residual = 0, No Iterations 0
DILUPBiCGStab:  Solving for H2O, Initial residual = 0, Final residual = 0, No Iterations 0
DILUPBiCGStab:  Solving for CH4, Initial residual = 0.003148530746, Final residual = 6.491341656e-05, No Iterations 2
DILUPBiCGStab:  Solving for CO, Initial residual = 0, Final residual = 0, No Iterations 0
DILUPBiCGStab:  Solving for CO2, Initial residual = 0, Final residual = 0, No Iterations 0
DICPCG:  Solving for G, Initial residual = 0.0203614032, Final residual = 9.772600408e-06, No Iterations 317
DILUPBiCGStab:  Solving for h, Initial residual = 0.01555428889, Final residual = 0.0004464439481, No Iterations 1
min/max(T) = 291, 300.0356298
DICPCG:  Solving for p, Initial residual = 0.09375795103, Final residual = 0.0008758242331, No Iterations 74
diagonal:  Solving for rho, Initial residual = 0, Final residual = 0, No Iterations 0
time step continuity errors : sum local = 6.6037906e-07, global = 8.537561534e-08, cumulative = -0.0001490514608
DICPCG:  Solving for p, Initial residual = 0.01956335399, Final residual = 0.0001929068015, No Iterations 64
diagonal:  Solving for rho, Initial residual = 0, Final residual = 0, No Iterations 0
time step continuity errors : sum local = 2.531109753e-07, global = -2.097419196e-08, cumulative = -0.000149072435
DICPCG:  Solving for p, Initial residual = 0.007916569627, Final residual = 9.760583556e-08, No Iterations 135
diagonal:  Solving for rho, Initial residual = 0, Final residual = 0, No Iterations 0
time step continuity errors : sum local = 1.386855601e-10, global = -1.800967372e-12, cumulative = -0.0001490724368
DILUPBiCGStab:  Solving for epsilon, Initial residual = 0.01812661172, Final residual = 0.0002114277407, No Iterations 1
bounding epsilon, min: -20.1618712 max: 569069.7137 average: 46042.14502
DILUPBiCGStab:  Solving for k, Initial residual = 0.07039890704, Final residual = 0.002102332705, No Iterations 1
bounding k, min: -0.001362335552 max: 27.99640494 average: 16.20500914
ExecutionTime = 68.61 s  ClockTime = 69 s

Time scales min/max:
    Flow        = 2.427065188e-06, 0.0001
    Temperature = 1e+300, 1e+300
    Composition = 1e+300, 1e+300
    Overall     = 2.427065188e-06, 0.0001
Time = 10

diagonal:  Solving for rho, Initial residual = 0, Final residual = 0, No Iterations 0
PIMPLE: iteration 1
DILUPBiCGStab:  Solving for Ux, Initial residual = 0.07715743141, Final residual = 0.0006656410506, No Iterations 1
DILUPBiCGStab:  Solving for Uy, Initial residual = 0.09648696248, Final residual = 0.0008307617572, No Iterations 1
DILUPBiCGStab:  Solving for Uz, Initial residual = 0.07491762829, Final residual = 0.001319711761, No Iterations 1
Chemistry time solved max/min : 0.001094849902 / 2.308617768e-06
DILUPBiCGStab:  Solving for H2, Initial residual = 0, Final residual = 0, No Iterations 0
DILUPBiCGStab:  Solving for H, Initial residual = 0, Final residual = 0, No Iterations 0
DILUPBiCGStab:  Solving for O, Initial residual = 0, Final residual = 0, No Iterations 0
DILUPBiCGStab:  Solving for O2, Initial residual = 0.004231531375, Final residual = 8.277431459e-05, No Iterations 2
DILUPBiCGStab:  Solving for OH, Initial residual = 0, Final residual = 0, No Iterations 0
DILUPBiCGStab:  Solving for H2O, Initial residual = 0, Final residual = 0, No Iterations 0
DILUPBiCGStab:  Solving for CH4, Initial residual = 0.002860922784, Final residual = 5.36156544e-05, No Iterations 2
DILUPBiCGStab:  Solving for CO, Initial residual = 0, Final residual = 0, No Iterations 0
DILUPBiCGStab:  Solving for CO2, Initial residual = 0, Final residual = 0, No Iterations 0
DICPCG:  Solving for G, Initial residual = 0.0166858861, Final residual = 9.770045604e-06, No Iterations 318
DILUPBiCGStab:  Solving for h, Initial residual = 0.01222730614, Final residual = 0.0003347721135, No Iterations 1
min/max(T) = 291, 300.0354193
DICPCG:  Solving for p, Initial residual = 0.07658813918, Final residual = 0.0007639685981, No Iterations 68
diagonal:  Solving for rho, Initial residual = 0, Final residual = 0, No Iterations 0
time step continuity errors : sum local = 7.730426825e-07, global = -3.743514235e-07, cumulative = -0.0001494467882
DICPCG:  Solving for p, Initial residual = 0.01747030119, Final residual = 0.0001718981975, No Iterations 67
diagonal:  Solving for rho, Initial residual = 0, Final residual = 0, No Iterations 0
time step continuity errors : sum local = 2.768206138e-07, global = -1.080179587e-08, cumulative = -0.00014945759
DICPCG:  Solving for p, Initial residual = 0.007282561719, Final residual = 9.315548193e-08, No Iterations 138
diagonal:  Solving for rho, Initial residual = 0, Final residual = 0, No Iterations 0
time step continuity errors : sum local = 1.639850754e-10, global = -6.626525622e-13, cumulative = -0.0001494575907
DILUPBiCGStab:  Solving for epsilon, Initial residual = 0.01835186987, Final residual = 0.0002182109737, No Iterations 1
bounding epsilon, min: -39.55378107 max: 579951.8624 average: 42190.84195
DILUPBiCGStab:  Solving for k, Initial residual = 0.06747815305, Final residual = 0.002008130315, No Iterations 1
ExecutionTime = 76.04 s  ClockTime = 76 s

Time scales min/max:
    Flow        = 2.726713106e-06, 0.0001
    Temperature = 1e+300, 1e+300
    Composition = 1e+300, 1e+300
    Overall     = 2.726713106e-06, 0.0001
Time = 11

diagonal:  Solving for rho, Initial residual = 0, Final residual = 0, No Iterations 0
PIMPLE: iteration 1
DILUPBiCGStab:  Solving for Ux, Initial residual = 0.108272037, Final residual = 0.001122439862, No Iterations 1
DILUPBiCGStab:  Solving for Uy, Initial residual = 0.130347085, Final residual = 0.001155556682, No Iterations 1
DILUPBiCGStab:  Solving for Uz, Initial residual = 0.09904276172, Final residual = 0.001050376788, No Iterations 1
Chemistry time solved max/min : 0.0009123113849 / 2.284335428e-06
DILUPBiCGStab:  Solving for H2, Initial residual = 0, Final residual = 0, No Iterations 0
DILUPBiCGStab:  Solving for H, Initial residual = 0, Final residual = 0, No Iterations 0
DILUPBiCGStab:  Solving for O, Initial residual = 0, Final residual = 0, No Iterations 0
DILUPBiCGStab:  Solving for O2, Initial residual = 0.004055424123, Final residual = 7.936856876e-05, No Iterations 2
DILUPBiCGStab:  Solving for OH, Initial residual = 0, Final residual = 0, No Iterations 0
DILUPBiCGStab:  Solving for H2O, Initial residual = 0, Final residual = 0, No Iterations 0
DILUPBiCGStab:  Solving for CH4, Initial residual = 0.002758876495, Final residual = 5.385475853e-05, No Iterations 2
DILUPBiCGStab:  Solving for CO, Initial residual = 0, Final residual = 0, No Iterations 0
DILUPBiCGStab:  Solving for CO2, Initial residual = 0, Final residual = 0, No Iterations 0
DICPCG:  Solving for G, Initial residual = 0.01383665542, Final residual = 9.767677691e-06, No Iterations 314
DILUPBiCGStab:  Solving for h, Initial residual = 0.01190655838, Final residual = 0.0003082216074, No Iterations 1
min/max(T) = 291, 300.0340228
DICPCG:  Solving for p, Initial residual = 0.08183494408, Final residual = 0.0007914854026, No Iterations 81
diagonal:  Solving for rho, Initial residual = 0, Final residual = 0, No Iterations 0
time step continuity errors : sum local = 8.505783767e-07, global = -4.22281323e-08, cumulative = -0.0001494998188
DICPCG:  Solving for p, Initial residual = 0.02013337787, Final residual = 0.0001866867348, No Iterations 69
diagonal:  Solving for rho, Initial residual = 0, Final residual = 0, No Iterations 0
time step continuity errors : sum local = 3.021568299e-07, global = -1.95454184e-08, cumulative = -0.0001495193642
DICPCG:  Solving for p, Initial residual = 0.008635581306, Final residual = 9.554582693e-08, No Iterations 144
diagonal:  Solving for rho, Initial residual = 0, Final residual = 0, No Iterations 0
time step continuity errors : sum local = 1.693683065e-10, global = -1.254655607e-12, cumulative = -0.0001495193655
DILUPBiCGStab:  Solving for epsilon, Initial residual = 0.01931064842, Final residual = 0.0002247723117, No Iterations 1
bounding epsilon, min: -21.7341914 max: 621749.5969 average: 38974.88246
DILUPBiCGStab:  Solving for k, Initial residual = 0.06902874207, Final residual = 0.002099774159, No Iterations 1
bounding k, min: -0.002576404779 max: 27.63838801 average: 15.07301307
ExecutionTime = 83.68 s  ClockTime = 84 s

Time scales min/max:
    Flow        = 3.428059945e-06, 0.0001
    Temperature = 1e+300, 1e+300
    Composition = 1e+300, 1e+300
    Overall     = 3.428059945e-06, 0.0001
Time = 12

diagonal:  Solving for rho, Initial residual = 0, Final residual = 0, No Iterations 0
PIMPLE: iteration 1
DILUPBiCGStab:  Solving for Ux, Initial residual = 0.1436173897, Final residual = 0.002323644675, No Iterations 1
DILUPBiCGStab:  Solving for Uy, Initial residual = 0.1596793612, Final residual = 0.002245820042, No Iterations 1
DILUPBiCGStab:  Solving for Uz, Initial residual = 0.1434950417, Final residual = 0.001987594187, No Iterations 1
Chemistry time solved max/min : 0.001406373886 / 2.205180004e-06
DILUPBiCGStab:  Solving for H2, Initial residual = 0, Final residual = 0, No Iterations 0
DILUPBiCGStab:  Solving for H, Initial residual = 0, Final residual = 0, No Iterations 0
DILUPBiCGStab:  Solving for O, Initial residual = 0, Final residual = 0, No Iterations 0
DILUPBiCGStab:  Solving for O2, Initial residual = 0.004122994336, Final residual = 9.228561941e-05, No Iterations 2
DILUPBiCGStab:  Solving for OH, Initial residual = 0, Final residual = 0, No Iterations 0
DILUPBiCGStab:  Solving for H2O, Initial residual = 0, Final residual = 0, No Iterations 0
DILUPBiCGStab:  Solving for CH4, Initial residual = 0.002844595575, Final residual = 6.094215686e-05, No Iterations 2
DILUPBiCGStab:  Solving for CO, Initial residual = 0, Final residual = 0, No Iterations 0
DILUPBiCGStab:  Solving for CO2, Initial residual = 0, Final residual = 0, No Iterations 0
DICPCG:  Solving for G, Initial residual = 0.01357660291, Final residual = 9.379745064e-06, No Iterations 316
DILUPBiCGStab:  Solving for h, Initial residual = 0.01370413924, Final residual = 0.0003979383664, No Iterations 1
min/max(T) = 291, 300.0323972
DICPCG:  Solving for p, Initial residual = 0.09807828012, Final residual = 0.0008749422537, No Iterations 83
diagonal:  Solving for rho, Initial residual = 0, Final residual = 0, No Iterations 0
time step continuity errors : sum local = 1.019376021e-06, global = -2.947516367e-08, cumulative = -0.0001495488407
DICPCG:  Solving for p, Initial residual = 0.02666229501, Final residual = 0.0002422658283, No Iterations 55
diagonal:  Solving for rho, Initial residual = 0, Final residual = 0, No Iterations 0
time step continuity errors : sum local = 3.319779693e-07, global = 5.098676725e-08, cumulative = -0.0001494978539
DICPCG:  Solving for p, Initial residual = 0.01186687556, Final residual = 9.250170476e-08, No Iterations 145
diagonal:  Solving for rho, Initial residual = 0, Final residual = 0, No Iterations 0
time step continuity errors : sum local = 1.351260201e-10, global = -1.616386402e-14, cumulative = -0.0001494978539
DILUPBiCGStab:  Solving for epsilon, Initial residual = 0.02052858495, Final residual = 0.0002485886762, No Iterations 1
bounding epsilon, min: -73.97555524 max: 647053.0644 average: 36073.85308
DILUPBiCGStab:  Solving for k, Initial residual = 0.07410371717, Final residual = 0.002329807094, No Iterations 1
bounding k, min: -0.0007127098064 max: 27.40735271 average: 14.52010557
ExecutionTime = 91.18 s  ClockTime = 91 s

Time scales min/max:
    Flow        = 2.562748715e-06, 0.0001
    Temperature = 1e+300, 1e+300
    Composition = 1e+300, 1e+300
    Overall     = 2.562748715e-06, 0.0001
Time = 13

diagonal:  Solving for rho, Initial residual = 0, Final residual = 0, No Iterations 0
PIMPLE: iteration 1
DILUPBiCGStab:  Solving for Ux, Initial residual = 0.1562362708, Final residual = 0.003151955341, No Iterations 1
DILUPBiCGStab:  Solving for Uy, Initial residual = 0.1483352493, Final residual = 0.003166337585, No Iterations 1
DILUPBiCGStab:  Solving for Uz, Initial residual = 0.1680463081, Final residual = 0.003503967783, No Iterations 1
Chemistry time solved max/min : 0.001938620976 / 2.160245846e-06
DILUPBiCGStab:  Solving for H2, Initial residual = 0, Final residual = 0, No Iterations 0
DILUPBiCGStab:  Solving for H, Initial residual = 0, Final residual = 0, No Iterations 0
DILUPBiCGStab:  Solving for O, Initial residual = 0, Final residual = 0, No Iterations 0
DILUPBiCGStab:  Solving for O2, Initial residual = 0.003666945518, Final residual = 8.318915669e-05, No Iterations 2
DILUPBiCGStab:  Solving for OH, Initial residual = 0, Final residual = 0, No Iterations 0
DILUPBiCGStab:  Solving for H2O, Initial residual = 0, Final residual = 0, No Iterations 0
DILUPBiCGStab:  Solving for CH4, Initial residual = 0.002521965361, Final residual = 5.621256022e-05, No Iterations 2
DILUPBiCGStab:  Solving for CO, Initial residual = 0, Final residual = 0, No Iterations 0
DILUPBiCGStab:  Solving for CO2, Initial residual = 0, Final residual = 0, No Iterations 0
DICPCG:  Solving for G, Initial residual = 0.01571483017, Final residual = 9.79737145e-06, No Iterations 320
DILUPBiCGStab:  Solving for h, Initial residual = 0.01366605238, Final residual = 0.0004594341763, No Iterations 1
min/max(T) = 291, 300.0304153
DICPCG:  Solving for p, Initial residual = 0.1217888657, Final residual = 0.001137014626, No Iterations 78
diagonal:  Solving for rho, Initial residual = 0, Final residual = 0, No Iterations 0
time step continuity errors : sum local = 1.216072772e-06, global = -4.851406501e-08, cumulative = -0.000149546368
DICPCG:  Solving for p, Initial residual = 0.02722872165, Final residual = 0.0002539719666, No Iterations 71
diagonal:  Solving for rho, Initial residual = 0, Final residual = 0, No Iterations 0
time step continuity errors : sum local = 2.455902652e-07, global = 9.928328192e-09, cumulative = -0.0001495364396
DICPCG:  Solving for p, Initial residual = 0.01128377554, Final residual = 8.947741784e-08, No Iterations 146
diagonal:  Solving for rho, Initial residual = 0, Final residual = 0, No Iterations 0
time step continuity errors : sum local = 9.480984747e-11, global = 2.661608444e-12, cumulative = -0.000149536437
DILUPBiCGStab:  Solving for epsilon, Initial residual = 0.01953929589, Final residual = 0.0002379854785, No Iterations 1
bounding epsilon, min: -34.34543774 max: 652496.5748 average: 33646.29778
DILUPBiCGStab:  Solving for k, Initial residual = 0.06932591101, Final residual = 0.002159382247, No Iterations 1
bounding k, min: -0.004893555177 max: 27.08154322 average: 14.00409832
ExecutionTime = 98.91 s  ClockTime = 99 s

Time scales min/max:
    Flow        = 1.977462508e-06, 0.0001
    Temperature = 1e+300, 1e+300
    Composition = 1e+300, 1e+300
    Overall     = 1.977462508e-06, 0.0001
Time = 14

diagonal:  Solving for rho, Initial residual = 0, Final residual = 0, No Iterations 0
PIMPLE: iteration 1
DILUPBiCGStab:  Solving for Ux, Initial residual = 0.1267372553, Final residual = 0.00226672191, No Iterations 1
DILUPBiCGStab:  Solving for Uy, Initial residual = 0.1082032304, Final residual = 0.001904716485, No Iterations 1
DILUPBiCGStab:  Solving for Uz, Initial residual = 0.1319404208, Final residual = 0.00308848295, No Iterations 1
Chemistry time solved max/min : 0.002653776213 / 2.149746972e-06
DILUPBiCGStab:  Solving for H2, Initial residual = 0, Final residual = 0, No Iterations 0
DILUPBiCGStab:  Solving for H, Initial residual = 0, Final residual = 0, No Iterations 0
DILUPBiCGStab:  Solving for O, Initial residual = 0, Final residual = 0, No Iterations 0
DILUPBiCGStab:  Solving for O2, Initial residual = 0.00286791381, Final residual = 0.0001370719629, No Iterations 1
DILUPBiCGStab:  Solving for OH, Initial residual = 0, Final residual = 0, No Iterations 0
DILUPBiCGStab:  Solving for H2O, Initial residual = 0, Final residual = 0, No Iterations 0
DILUPBiCGStab:  Solving for CH4, Initial residual = 0.001957545377, Final residual = 3.142874958e-05, No Iterations 2
DILUPBiCGStab:  Solving for CO, Initial residual = 0, Final residual = 0, No Iterations 0
DILUPBiCGStab:  Solving for CO2, Initial residual = 0, Final residual = 0, No Iterations 0
DICPCG:  Solving for G, Initial residual = 0.01600537207, Final residual = 9.717951812e-06, No Iterations 316
DILUPBiCGStab:  Solving for h, Initial residual = 0.01205512564, Final residual = 0.0003561138338, No Iterations 1
min/max(T) = 291, 300.0256854
DICPCG:  Solving for p, Initial residual = 0.1351519273, Final residual = 0.00129687954, No Iterations 76
diagonal:  Solving for rho, Initial residual = 0, Final residual = 0, No Iterations 0
time step continuity errors : sum local = 1.079188334e-06, global = -3.146217039e-08, cumulative = -0.0001495678991
DICPCG:  Solving for p, Initial residual = 0.02981260429, Final residual = 0.0002954570138, No Iterations 68
diagonal:  Solving for rho, Initial residual = 0, Final residual = 0, No Iterations 0
time step continuity errors : sum local = 1.972521179e-07, global = 1.189031141e-08, cumulative = -0.0001495560088
DICPCG:  Solving for p, Initial residual = 0.01195696559, Final residual = 9.897419485e-08, No Iterations 148
diagonal:  Solving for rho, Initial residual = 0, Final residual = 0, No Iterations 0
time step continuity errors : sum local = 7.23097059e-11, global = -2.885405743e-12, cumulative = -0.0001495560117
DILUPBiCGStab:  Solving for epsilon, Initial residual = 0.01644255208, Final residual = 0.0001877647126, No Iterations 1
bounding epsilon, min: -35.35174314 max: 714650.31 average: 31993.2307
DILUPBiCGStab:  Solving for k, Initial residual = 0.05539202523, Final residual = 0.001600443972, No Iterations 1
ExecutionTime = 106.78 s  ClockTime = 107 s

Time scales min/max:
    Flow        = 1.844812555e-06, 0.0001
    Temperature = 1e+300, 1e+300
    Composition = 1e+300, 1e+300
    Overall     = 1.844812555e-06, 0.0001
Time = 15

diagonal:  Solving for rho, Initial residual = 0, Final residual = 0, No Iterations 0
PIMPLE: iteration 1
DILUPBiCGStab:  Solving for Ux, Initial residual = 0.07249649739, Final residual = 0.001016673483, No Iterations 1
DILUPBiCGStab:  Solving for Uy, Initial residual = 0.08432998938, Final residual = 0.001219237506, No Iterations 1
DILUPBiCGStab:  Solving for Uz, Initial residual = 0.09095460251, Final residual = 0.002459290215, No Iterations 1
Chemistry time solved max/min : 0.003105444758 / 2.053351896e-06
DILUPBiCGStab:  Solving for H2, Initial residual = 0, Final residual = 0, No Iterations 0
DILUPBiCGStab:  Solving for H, Initial residual = 0, Final residual = 0, No Iterations 0
DILUPBiCGStab:  Solving for O, Initial residual = 0, Final residual = 0, No Iterations 0
DILUPBiCGStab:  Solving for O2, Initial residual = 0.002458024655, Final residual = 8.882858231e-05, No Iterations 1
DILUPBiCGStab:  Solving for OH, Initial residual = 0, Final residual = 0, No Iterations 0
DILUPBiCGStab:  Solving for H2O, Initial residual = 0, Final residual = 0, No Iterations 0
DILUPBiCGStab:  Solving for CH4, Initial residual = 0.001665682137, Final residual = 7.183007699e-05, No Iterations 1
DILUPBiCGStab:  Solving for CO, Initial residual = 0, Final residual = 0, No Iterations 0
DILUPBiCGStab:  Solving for CO2, Initial residual = 0, Final residual = 0, No Iterations 0
DICPCG:  Solving for G, Initial residual = 0.0154259117, Final residual = 9.757296178e-06, No Iterations 318
DILUPBiCGStab:  Solving for h, Initial residual = 0.01035134699, Final residual = 0.0002682822705, No Iterations 1
min/max(T) = 291, 300.0189512
DICPCG:  Solving for p, Initial residual = 0.176350006, Final residual = 0.001608983398, No Iterations 74
diagonal:  Solving for rho, Initial residual = 0, Final residual = 0, No Iterations 0
time step continuity errors : sum local = 8.480788404e-07, global = -7.694139563e-09, cumulative = -0.0001495637059
DICPCG:  Solving for p, Initial residual = 0.04860324375, Final residual = 0.0004676146737, No Iterations 62
diagonal:  Solving for rho, Initial residual = 0, Final residual = 0, No Iterations 0
time step continuity errors : sum local = 1.673232024e-07, global = 2.951834096e-08, cumulative = -0.0001495341875
DICPCG:  Solving for p, Initial residual = 0.02036195959, Final residual = 9.988448457e-08, No Iterations 151
diagonal:  Solving for rho, Initial residual = 0, Final residual = 0, No Iterations 0
time step continuity errors : sum local = 3.92231651e-11, global = 5.867088831e-14, cumulative = -0.0001495341875
DILUPBiCGStab:  Solving for epsilon, Initial residual = 0.0147820972, Final residual = 0.000157330297, No Iterations 1
bounding epsilon, min: -18.74851664 max: 756159.9152 average: 30762.4143
DILUPBiCGStab:  Solving for k, Initial residual = 0.0485621988, Final residual = 0.001328918834, No Iterations 1
bounding k, min: -0.00049922288 max: 26.59654296 average: 13.19061073
ExecutionTime = 114.33 s  ClockTime = 114 s

Time scales min/max:
    Flow        = 1.945594466e-06, 0.0001
    Temperature = 1e+300, 1e+300
    Composition = 1e+300, 1e+300
    Overall     = 1.945594466e-06, 0.0001
Time = 16

diagonal:  Solving for rho, Initial residual = 0, Final residual = 0, No Iterations 0
PIMPLE: iteration 1
DILUPBiCGStab:  Solving for Ux, Initial residual = 0.04210396527, Final residual = 0.0005787338007, No Iterations 1
DILUPBiCGStab:  Solving for Uy, Initial residual = 0.05213925487, Final residual = 0.0007461110594, No Iterations 1
DILUPBiCGStab:  Solving for Uz, Initial residual = 0.06198233786, Final residual = 0.002022167451, No Iterations 1
Chemistry time solved max/min : 0.003068287579 / 1.995411949e-06
DILUPBiCGStab:  Solving for H2, Initial residual = 0, Final residual = 0, No Iterations 0
DILUPBiCGStab:  Solving for H, Initial residual = 0, Final residual = 0, No Iterations 0
DILUPBiCGStab:  Solving for O, Initial residual = 0, Final residual = 0, No Iterations 0
DILUPBiCGStab:  Solving for O2, Initial residual = 0.002315710651, Final residual = 7.530342652e-05, No Iterations 1
DILUPBiCGStab:  Solving for OH, Initial residual = 0, Final residual = 0, No Iterations 0
DILUPBiCGStab:  Solving for H2O, Initial residual = 0, Final residual = 0, No Iterations 0
DILUPBiCGStab:  Solving for CH4, Initial residual = 0.001574110083, Final residual = 6.139284706e-05, No Iterations 1
DILUPBiCGStab:  Solving for CO, Initial residual = 0, Final residual = 0, No Iterations 0
DILUPBiCGStab:  Solving for CO2, Initial residual = 0, Final residual = 0, No Iterations 0
DICPCG:  Solving for G, Initial residual = 0.01423552406, Final residual = 9.813756483e-06, No Iterations 306
DILUPBiCGStab:  Solving for h, Initial residual = 0.008946505501, Final residual = 0.0002098090629, No Iterations 1
min/max(T) = 291, 300.0137483
DICPCG:  Solving for p, Initial residual = 0.3035641772, Final residual = 0.002958813229, No Iterations 72
diagonal:  Solving for rho, Initial residual = 0, Final residual = 0, No Iterations 0
time step continuity errors : sum local = 7.749755214e-07, global = 3.763021712e-09, cumulative = -0.0001495304244
DICPCG:  Solving for p, Initial residual = 0.04864394225, Final residual = 0.0004594364377, No Iterations 62
diagonal:  Solving for rho, Initial residual = 0, Final residual = 0, No Iterations 0
time step continuity errors : sum local = 1.649057621e-07, global = 3.834393949e-08, cumulative = -0.0001494920805
DICPCG:  Solving for p, Initial residual = 0.02178397233, Final residual = 9.461760766e-08, No Iterations 154
diagonal:  Solving for rho, Initial residual = 0, Final residual = 0, No Iterations 0
time step continuity errors : sum local = 3.699201396e-11, global = 2.349186877e-13, cumulative = -0.0001494920803
DILUPBiCGStab:  Solving for epsilon, Initial residual = 0.01422495632, Final residual = 0.0001612215744, No Iterations 1
bounding epsilon, min: -16.68723219 max: 765963.5526 average: 29691.21408
DILUPBiCGStab:  Solving for k, Initial residual = 0.04654674442, Final residual = 0.001261541106, No Iterations 1
bounding k, min: -0.0002588723354 max: 26.3938043 average: 12.83544437
ExecutionTime = 121.98 s  ClockTime = 122 s

Time scales min/max:
    Flow        = 2.079665933e-06, 0.0001
    Temperature = 1e+300, 1e+300
    Composition = 1e+300, 1e+300
    Overall     = 2.079665933e-06, 0.0001
Time = 17

diagonal:  Solving for rho, Initial residual = 0, Final residual = 0, No Iterations 0
PIMPLE: iteration 1
DILUPBiCGStab:  Solving for Ux, Initial residual = 0.03644379597, Final residual = 0.0005229474629, No Iterations 1
DILUPBiCGStab:  Solving for Uy, Initial residual = 0.05104973481, Final residual = 0.0008475299956, No Iterations 1
DILUPBiCGStab:  Solving for Uz, Initial residual = 0.04948976547, Final residual = 0.001614290187, No Iterations 1
Chemistry time solved max/min : 0.002813904332 / 1.9819698e-06
DILUPBiCGStab:  Solving for H2, Initial residual = 0, Final residual = 0, No Iterations 0
DILUPBiCGStab:  Solving for H, Initial residual = 0, Final residual = 0, No Iterations 0
DILUPBiCGStab:  Solving for O, Initial residual = 0, Final residual = 0, No Iterations 0
DILUPBiCGStab:  Solving for O2, Initial residual = 0.00240235842, Final residual = 7.13306173e-05, No Iterations 1
DILUPBiCGStab:  Solving for OH, Initial residual = 0, Final residual = 0, No Iterations 0
DILUPBiCGStab:  Solving for H2O, Initial residual = 0, Final residual = 0, No Iterations 0
DILUPBiCGStab:  Solving for CH4, Initial residual = 0.001673254291, Final residual = 5.52770537e-05, No Iterations 1
DILUPBiCGStab:  Solving for CO, Initial residual = 0, Final residual = 0, No Iterations 0
DILUPBiCGStab:  Solving for CO2, Initial residual = 0, Final residual = 0, No Iterations 0
DICPCG:  Solving for G, Initial residual = 0.01397013925, Final residual = 9.892925994e-06, No Iterations 315
DILUPBiCGStab:  Solving for h, Initial residual = 0.007712832325, Final residual = 0.0001570121098, No Iterations 1
min/max(T) = 291, 300.010078
DICPCG:  Solving for p, Initial residual = 0.2094527573, Final residual = 0.001954756795, No Iterations 71
diagonal:  Solving for rho, Initial residual = 0, Final residual = 0, No Iterations 0
time step continuity errors : sum local = 5.395595515e-07, global = 5.371367037e-08, cumulative = -0.0001494383666
DICPCG:  Solving for p, Initial residual = 0.02955654913, Final residual = 0.0002935784654, No Iterations 63
diagonal:  Solving for rho, Initial residual = 0, Final residual = 0, No Iterations 0
time step continuity errors : sum local = 1.643920927e-07, global = 3.207483255e-08, cumulative = -0.0001494062918
DICPCG:  Solving for p, Initial residual = 0.01294971503, Final residual = 9.980258887e-08, No Iterations 146
diagonal:  Solving for rho, Initial residual = 0, Final residual = 0, No Iterations 0
time step continuity errors : sum local = 6.011280618e-11, global = 1.003471758e-14, cumulative = -0.0001494062918
DILUPBiCGStab:  Solving for epsilon, Initial residual = 0.01408675018, Final residual = 0.0001614957682, No Iterations 1
bounding epsilon, min: -6.430779886 max: 763401.8403 average: 28657.20577
DILUPBiCGStab:  Solving for k, Initial residual = 0.04659873366, Final residual = 0.001273759869, No Iterations 1
bounding k, min: -0.001987188053 max: 26.20769718 average: 12.4897322
ExecutionTime = 129.53 s  ClockTime = 130 s

Time scales min/max:
    Flow        = 2.100860683e-06, 0.0001
    Temperature = 1e+300, 1e+300
    Composition = 1e+300, 1e+300
    Overall     = 2.100860683e-06, 0.0001
Time = 18

diagonal:  Solving for rho, Initial residual = 0, Final residual = 0, No Iterations 0
PIMPLE: iteration 1
DILUPBiCGStab:  Solving for Ux, Initial residual = 0.04715141821, Final residual = 0.000689430229, No Iterations 1
DILUPBiCGStab:  Solving for Uy, Initial residual = 0.05908210709, Final residual = 0.0009070396603, No Iterations 1
DILUPBiCGStab:  Solving for Uz, Initial residual = 0.04663001496, Final residual = 0.00111361238, No Iterations 1
Chemistry time solved max/min : 0.00609775244 / 1.984783794e-06
DILUPBiCGStab:  Solving for H2, Initial residual = 0, Final residual = 0, No Iterations 0
DILUPBiCGStab:  Solving for H, Initial residual = 0, Final residual = 0, No Iterations 0
DILUPBiCGStab:  Solving for O, Initial residual = 0, Final residual = 0, No Iterations 0
DILUPBiCGStab:  Solving for O2, Initial residual = 0.002297595107, Final residual = 6.883385354e-05, No Iterations 1
DILUPBiCGStab:  Solving for OH, Initial residual = 0, Final residual = 0, No Iterations 0
DILUPBiCGStab:  Solving for H2O, Initial residual = 0, Final residual = 0, No Iterations 0
DILUPBiCGStab:  Solving for CH4, Initial residual = 0.001597137456, Final residual = 5.41879312e-05, No Iterations 1
DILUPBiCGStab:  Solving for CO, Initial residual = 0, Final residual = 0, No Iterations 0
DILUPBiCGStab:  Solving for CO2, Initial residual = 0, Final residual = 0, No Iterations 0
DICPCG:  Solving for G, Initial residual = 0.01270087817, Final residual = 9.373117741e-06, No Iterations 319
DILUPBiCGStab:  Solving for h, Initial residual = 0.005936381453, Final residual = 0.0001225705647, No Iterations 1
min/max(T) = 291, 300.0070223
DICPCG:  Solving for p, Initial residual = 0.09913511905, Final residual = 0.0009594525987, No Iterations 73
diagonal:  Solving for rho, Initial residual = 0, Final residual = 0, No Iterations 0
time step continuity errors : sum local = 4.236353574e-07, global = -8.497398559e-08, cumulative = -0.0001494912657
DICPCG:  Solving for p, Initial residual = 0.02226943341, Final residual = 0.0002000884372, No Iterations 67
diagonal:  Solving for rho, Initial residual = 0, Final residual = 0, No Iterations 0
time step continuity errors : sum local = 1.516269025e-07, global = 2.323606356e-08, cumulative = -0.0001494680297
DICPCG:  Solving for p, Initial residual = 0.009580878361, Final residual = 9.253645857e-08, No Iterations 145
diagonal:  Solving for rho, Initial residual = 0, Final residual = 0, No Iterations 0
time step continuity errors : sum local = 7.578854804e-11, global = -2.576676154e-13, cumulative = -0.0001494680299
DILUPBiCGStab:  Solving for epsilon, Initial residual = 0.01362388388, Final residual = 0.0001576401388, No Iterations 1
bounding epsilon, min: -2.425873902 max: 749612.5471 average: 27653.5962
DILUPBiCGStab:  Solving for k, Initial residual = 0.04553174811, Final residual = 0.001235805538, No Iterations 1
ExecutionTime = 137 s  ClockTime = 137 s

Time scales min/max:
    Flow        = 2.269670059e-06, 0.0001
    Temperature = 1e+300, 1e+300
    Composition = 1e+300, 1e+300
    Overall     = 2.269670059e-06, 0.0001
Time = 19

diagonal:  Solving for rho, Initial residual = 0, Final residual = 0, No Iterations 0
PIMPLE: iteration 1
DILUPBiCGStab:  Solving for Ux, Initial residual = 0.05252108952, Final residual = 0.0006526856716, No Iterations 1
DILUPBiCGStab:  Solving for Uy, Initial residual = 0.05302160886, Final residual = 0.0006256350061, No Iterations 1
DILUPBiCGStab:  Solving for Uz, Initial residual = 0.04377944653, Final residual = 0.0007937373032, No Iterations 1
Chemistry time solved max/min : 0.003039296121 / 2.002419789e-06
DILUPBiCGStab:  Solving for H2, Initial residual = 0, Final residual = 0, No Iterations 0
DILUPBiCGStab:  Solving for H, Initial residual = 0, Final residual = 0, No Iterations 0
DILUPBiCGStab:  Solving for O, Initial residual = 0, Final residual = 0, No Iterations 0
DILUPBiCGStab:  Solving for O2, Initial residual = 0.002148737207, Final residual = 6.906767057e-05, No Iterations 1
DILUPBiCGStab:  Solving for OH, Initial residual = 0, Final residual = 0, No Iterations 0
DILUPBiCGStab:  Solving for H2O, Initial residual = 0, Final residual = 0, No Iterations 0
DILUPBiCGStab:  Solving for CH4, Initial residual = 0.001472075589, Final residual = 5.707746551e-05, No Iterations 1
DILUPBiCGStab:  Solving for CO, Initial residual = 0, Final residual = 0, No Iterations 0
DILUPBiCGStab:  Solving for CO2, Initial residual = 0, Final residual = 0, No Iterations 0
DICPCG:  Solving for G, Initial residual = 0.01067098065, Final residual = 9.496199499e-06, No Iterations 313
DILUPBiCGStab:  Solving for h, Initial residual = 0.004312707381, Final residual = 9.598819405e-05, No Iterations 1
min/max(T) = 291, 300.0045265
DICPCG:  Solving for p, Initial residual = 0.0723309911, Final residual = 0.0006953964344, No Iterations 73
diagonal:  Solving for rho, Initial residual = 0, Final residual = 0, No Iterations 0
time step continuity errors : sum local = 4.193173554e-07, global = -1.88733605e-07, cumulative = -0.0001496567635
DICPCG:  Solving for p, Initial residual = 0.01906348644, Final residual = 0.0001828254221, No Iterations 68
diagonal:  Solving for rho, Initial residual = 0, Final residual = 0, No Iterations 0
time step continuity errors : sum local = 1.597237288e-07, global = 2.257597113e-08, cumulative = -0.0001496341876
DICPCG:  Solving for p, Initial residual = 0.008118313775, Final residual = 9.250284886e-08, No Iterations 148
diagonal:  Solving for rho, Initial residual = 0, Final residual = 0, No Iterations 0
time step continuity errors : sum local = 8.817957674e-11, global = -8.603917662e-13, cumulative = -0.0001496341884
DILUPBiCGStab:  Solving for epsilon, Initial residual = 0.0133769419, Final residual = 0.0001544300247, No Iterations 1
bounding epsilon, min: -27.90180531 max: 723636.108 average: 26715.7394
DILUPBiCGStab:  Solving for k, Initial residual = 0.04502551811, Final residual = 0.001223799557, No Iterations 1
ExecutionTime = 145.08 s  ClockTime = 145 s

Time scales min/max:
    Flow        = 2.494607526e-06, 0.0001
    Temperature = 1e+300, 1e+300
    Composition = 1e+300, 1e+300
    Overall     = 2.494607526e-06, 0.0001
Time = 20

diagonal:  Solving for rho, Initial residual = 0, Final residual = 0, No Iterations 0
PIMPLE: iteration 1
DILUPBiCGStab:  Solving for Ux, Initial residual = 0.06460111605, Final residual = 0.0007499497094, No Iterations 1
DILUPBiCGStab:  Solving for Uy, Initial residual = 0.04785602203, Final residual = 0.0004754002333, No Iterations 1
DILUPBiCGStab:  Solving for Uz, Initial residual = 0.04340082126, Final residual = 0.0004821915821, No Iterations 1
Chemistry time solved max/min : 0.003086904609 / 2.037442186e-06
DILUPBiCGStab:  Solving for H2, Initial residual = 0, Final residual = 0, No Iterations 0
DILUPBiCGStab:  Solving for H, Initial residual = 0, Final residual = 0, No Iterations 0
DILUPBiCGStab:  Solving for O, Initial residual = 0, Final residual = 0, No Iterations 0
DILUPBiCGStab:  Solving for O2, Initial residual = 0.002158489736, Final residual = 6.843117749e-05, No Iterations 1
DILUPBiCGStab:  Solving for OH, Initial residual = 0, Final residual = 0, No Iterations 0
DILUPBiCGStab:  Solving for H2O, Initial residual = 0, Final residual = 0, No Iterations 0
DILUPBiCGStab:  Solving for CH4, Initial residual = 0.001483522378, Final residual = 5.679669318e-05, No Iterations 1
DILUPBiCGStab:  Solving for CO, Initial residual = 0, Final residual = 0, No Iterations 0
DILUPBiCGStab:  Solving for CO2, Initial residual = 0, Final residual = 0, No Iterations 0
DICPCG:  Solving for G, Initial residual = 0.008936601807, Final residual = 9.279140189e-06, No Iterations 315
DILUPBiCGStab:  Solving for h, Initial residual = 0.004211117144, Final residual = 8.350927953e-05, No Iterations 1
min/max(T) = 291, 300.0026788
DICPCG:  Solving for p, Initial residual = 0.06519262629, Final residual = 0.0005764295268, No Iterations 84
diagonal:  Solving for rho, Initial residual = 0, Final residual = 0, No Iterations 0
time step continuity errors : sum local = 3.642885138e-07, global = 2.964686266e-08, cumulative = -0.0001496045416
DICPCG:  Solving for p, Initial residual = 0.01776220995, Final residual = 0.0001701441874, No Iterations 70
diagonal:  Solving for rho, Initial residual = 0, Final residual = 0, No Iterations 0
time step continuity errors : sum local = 1.52570898e-07, global = 1.897647028e-08, cumulative = -0.0001495855651
DICPCG:  Solving for p, Initial residual = 0.007545504182, Final residual = 9.071637822e-08, No Iterations 142
diagonal:  Solving for rho, Initial residual = 0, Final residual = 0, No Iterations 0
time step continuity errors : sum local = 8.834256727e-11, global = 1.294207068e-12, cumulative = -0.0001495855638
DILUPBiCGStab:  Solving for epsilon, Initial residual = 0.01362665182, Final residual = 0.0001509695719, No Iterations 1
bounding epsilon, min: -4.010339367 max: 684500.0462 average: 25800.55903
DILUPBiCGStab:  Solving for k, Initial residual = 0.04602814901, Final residual = 0.001269911143, No Iterations 1
bounding k, min: -0.001969869581 max: 25.61883436 average: 11.52319022
ExecutionTime = 153.89 s  ClockTime = 154 s

Time scales min/max:
    Flow        = 2.785223924e-06, 0.0001
    Temperature = 1e+300, 1e+300
    Composition = 1e+300, 1e+300
    Overall     = 2.785223924e-06, 0.0001
Time = 21

diagonal:  Solving for rho, Initial residual = 0, Final residual = 0, No Iterations 0
PIMPLE: iteration 1
DILUPBiCGStab:  Solving for Ux, Initial residual = 0.07025764052, Final residual = 0.0009588661559, No Iterations 1
DILUPBiCGStab:  Solving for Uy, Initial residual = 0.04977100046, Final residual = 0.0006202311887, No Iterations 1
DILUPBiCGStab:  Solving for Uz, Initial residual = 0.04843876556, Final residual = 0.0004998603278, No Iterations 1
Chemistry time solved max/min : 0.003034193254 / 2.094131936e-06
DILUPBiCGStab:  Solving for H2, Initial residual = 0, Final residual = 0, No Iterations 0
DILUPBiCGStab:  Solving for H, Initial residual = 0, Final residual = 0, No Iterations 0
DILUPBiCGStab:  Solving for O, Initial residual = 0, Final residual = 0, No Iterations 0
DILUPBiCGStab:  Solving for O2, Initial residual = 0.002193406101, Final residual = 6.965149882e-05, No Iterations 1
DILUPBiCGStab:  Solving for OH, Initial residual = 0, Final residual = 0, No Iterations 0
DILUPBiCGStab:  Solving for H2O, Initial residual = 0, Final residual = 0, No Iterations 0
DILUPBiCGStab:  Solving for CH4, Initial residual = 0.001521545102, Final residual = 5.030289015e-05, No Iterations 1
DILUPBiCGStab:  Solving for CO, Initial residual = 0, Final residual = 0, No Iterations 0
DILUPBiCGStab:  Solving for CO2, Initial residual = 0, Final residual = 0, No Iterations 0
DICPCG:  Solving for G, Initial residual = 0.008784641401, Final residual = 9.390449913e-06, No Iterations 315
DILUPBiCGStab:  Solving for h, Initial residual = 0.005021797176, Final residual = 9.25312168e-05, No Iterations 1
min/max(T) = 291, 300.0015605
DICPCG:  Solving for p, Initial residual = 0.06856932868, Final residual = 0.0006817687062, No Iterations 83
diagonal:  Solving for rho, Initial residual = 0, Final residual = 0, No Iterations 0
time step continuity errors : sum local = 4.455424805e-07, global = 2.428980956e-08, cumulative = -0.000149561274
DICPCG:  Solving for p, Initial residual = 0.0183406653, Final residual = 0.0001664222948, No Iterations 56
diagonal:  Solving for rho, Initial residual = 0, Final residual = 0, No Iterations 0
time step continuity errors : sum local = 1.359563323e-07, global = 3.596972681e-08, cumulative = -0.0001495253043
DICPCG:  Solving for p, Initial residual = 0.007788450375, Final residual = 9.928679689e-08, No Iterations 148
diagonal:  Solving for rho, Initial residual = 0, Final residual = 0, No Iterations 0
time step continuity errors : sum local = 8.710263423e-11, global = -1.882749527e-12, cumulative = -0.0001495253061
DILUPBiCGStab:  Solving for epsilon, Initial residual = 0.01316049054, Final residual = 0.0001613328489, No Iterations 1
bounding epsilon, min: -17.25369974 max: 653814.3834 average: 24898.10081
DILUPBiCGStab:  Solving for k, Initial residual = 0.04663715071, Final residual = 0.001293605367, No Iterations 1
ExecutionTime = 161.58 s  ClockTime = 162 s

Time scales min/max:
    Flow        = 2.984792859e-06, 0.0001
    Temperature = 1e+300, 1e+300
    Composition = 1e+300, 1e+300
    Overall     = 2.984792859e-06, 0.0001
Time = 22

diagonal:  Solving for rho, Initial residual = 0, Final residual = 0, No Iterations 0
PIMPLE: iteration 1
DILUPBiCGStab:  Solving for Ux, Initial residual = 0.06416026306, Final residual = 0.0008741822527, No Iterations 1
DILUPBiCGStab:  Solving for Uy, Initial residual = 0.05419432654, Final residual = 0.0007571160995, No Iterations 1
DILUPBiCGStab:  Solving for Uz, Initial residual = 0.05136701438, Final residual = 0.0008459279116, No Iterations 1
Chemistry time solved max/min : 0.004273642862 / 2.145101008e-06
DILUPBiCGStab:  Solving for H2, Initial residual = 0, Final residual = 0, No Iterations 0
DILUPBiCGStab:  Solving for H, Initial residual = 0, Final residual = 0, No Iterations 0
DILUPBiCGStab:  Solving for O, Initial residual = 0, Final residual = 0, No Iterations 0
DILUPBiCGStab:  Solving for O2, Initial residual = 0.002093476374, Final residual = 6.966116942e-05, No Iterations 1
DILUPBiCGStab:  Solving for OH, Initial residual = 0, Final residual = 0, No Iterations 0
DILUPBiCGStab:  Solving for H2O, Initial residual = 0, Final residual = 0, No Iterations 0
DILUPBiCGStab:  Solving for CH4, Initial residual = 0.001439933793, Final residual = 5.836588144e-05, No Iterations 1
DILUPBiCGStab:  Solving for CO, Initial residual = 0, Final residual = 0, No Iterations 0
DILUPBiCGStab:  Solving for CO2, Initial residual = 0, Final residual = 0, No Iterations 0
DICPCG:  Solving for G, Initial residual = 0.009104535228, Final residual = 9.6545348e-06, No Iterations 312
DILUPBiCGStab:  Solving for h, Initial residual = 0.005848185122, Final residual = 0.000154191454, No Iterations 1
min/max(T) = 291, 300.0027136
DICPCG:  Solving for p, Initial residual = 0.07981332686, Final residual = 0.0007961470655, No Iterations 81
diagonal:  Solving for rho, Initial residual = 0, Final residual = 0, No Iterations 0
time step continuity errors : sum local = 5.227299314e-07, global = 2.65391861e-08, cumulative = -0.000149498767
DICPCG:  Solving for p, Initial residual = 0.0179318304, Final residual = 0.0001763328063, No Iterations 67
diagonal:  Solving for rho, Initial residual = 0, Final residual = 0, No Iterations 0
time step continuity errors : sum local = 1.134464576e-07, global = -2.183770889e-08, cumulative = -0.0001495206047
DICPCG:  Solving for p, Initial residual = 0.007422168262, Final residual = 9.898205735e-08, No Iterations 144
diagonal:  Solving for rho, Initial residual = 0, Final residual = 0, No Iterations 0
time step continuity errors : sum local = 6.994410827e-11, global = -1.133778744e-12, cumulative = -0.0001495206058
DILUPBiCGStab:  Solving for epsilon, Initial residual = 0.01264196522, Final residual = 0.000154946185, No Iterations 1
bounding epsilon, min: -17.65177257 max: 624543.4953 average: 24012.84716
DILUPBiCGStab:  Solving for k, Initial residual = 0.04568751542, Final residual = 0.001257005403, No Iterations 1
bounding k, min: -0.001555358457 max: 25.06407793 average: 10.91431952
ExecutionTime = 169.57 s  ClockTime = 170 s

Time scales min/max:
    Flow        = 3.126428046e-06, 0.0001
    Temperature = 1e+300, 1e+300
    Composition = 1e+300, 1e+300
    Overall     = 3.126428046e-06, 0.0001
Time = 23

diagonal:  Solving for rho, Initial residual = 0, Final residual = 0, No Iterations 0
PIMPLE: iteration 1
DILUPBiCGStab:  Solving for Ux, Initial residual = 0.05434468953, Final residual = 0.0007772905951, No Iterations 1
DILUPBiCGStab:  Solving for Uy, Initial residual = 0.05922412143, Final residual = 0.0008929516533, No Iterations 1
DILUPBiCGStab:  Solving for Uz, Initial residual = 0.04685210243, Final residual = 0.0009758499931, No Iterations 1
Chemistry time solved max/min : 0.00656717582 / 2.194022034e-06
DILUPBiCGStab:  Solving for H2, Initial residual = 0, Final residual = 0, No Iterations 0
DILUPBiCGStab:  Solving for H, Initial residual = 0, Final residual = 0, No Iterations 0
DILUPBiCGStab:  Solving for O, Initial residual = 0, Final residual = 0, No Iterations 0
DILUPBiCGStab:  Solving for O2, Initial residual = 0.002007531509, Final residual = 6.897641663e-05, No Iterations 1
DILUPBiCGStab:  Solving for OH, Initial residual = 0, Final residual = 0, No Iterations 0
DILUPBiCGStab:  Solving for H2O, Initial residual = 0, Final residual = 0, No Iterations 0
DILUPBiCGStab:  Solving for CH4, Initial residual = 0.001378988036, Final residual = 5.773855459e-05, No Iterations 1
DILUPBiCGStab:  Solving for CO, Initial residual = 0, Final residual = 0, No Iterations 0
DILUPBiCGStab:  Solving for CO2, Initial residual = 0, Final residual = 0, No Iterations 0
DICPCG:  Solving for G, Initial residual = 0.01014315334, Final residual = 9.412295098e-06, No Iterations 314
DILUPBiCGStab:  Solving for h, Initial residual = 0.006277180604, Final residual = 0.0001825737111, No Iterations 1
min/max(T) = 291, 300.0061377
DICPCG:  Solving for p, Initial residual = 0.09903929294, Final residual = 0.0009828379281, No Iterations 81
diagonal:  Solving for rho, Initial residual = 0, Final residual = 0, No Iterations 0
time step continuity errors : sum local = 5.395223905e-07, global = 1.840903684e-08, cumulative = -0.0001495021968
DICPCG:  Solving for p, Initial residual = 0.0222548291, Final residual = 0.0002107755622, No Iterations 69
diagonal:  Solving for rho, Initial residual = 0, Final residual = 0, No Iterations 0
time step continuity errors : sum local = 8.970503267e-08, global = -3.84848275e-09, cumulative = -0.0001495060452
DICPCG:  Solving for p, Initial residual = 0.008412064449, Final residual = 9.86259609e-08, No Iterations 144
diagonal:  Solving for rho, Initial residual = 0, Final residual = 0, No Iterations 0
time step continuity errors : sum local = 4.540124704e-11, global = -6.18078788e-13, cumulative = -0.0001495060459
DILUPBiCGStab:  Solving for epsilon, Initial residual = 0.01200674811, Final residual = 0.0001460447232, No Iterations 1
bounding epsilon, min: -8.749284533 max: 599127.1498 average: 23162.78132
DILUPBiCGStab:  Solving for k, Initial residual = 0.04402107046, Final residual = 0.001195357734, No Iterations 1
ExecutionTime = 176.94 s  ClockTime = 177 s

Time scales min/max:
    Flow        = 3.278710459e-06, 0.0001
    Temperature = 1e+300, 1e+300
    Composition = 1e+300, 1e+300
    Overall     = 3.278710459e-06, 0.0001
Time = 24

diagonal:  Solving for rho, Initial residual = 0, Final residual = 0, No Iterations 0
PIMPLE: iteration 1
DILUPBiCGStab:  Solving for Ux, Initial residual = 0.04361928861, Final residual = 0.0007366271043, No Iterations 1
DILUPBiCGStab:  Solving for Uy, Initial residual = 0.05974935923, Final residual = 0.0009298920447, No Iterations 1
DILUPBiCGStab:  Solving for Uz, Initial residual = 0.0381951974, Final residual = 0.0009592791523, No Iterations 1
Chemistry time solved max/min : 0.01222487827 / 2.240991492e-06
DILUPBiCGStab:  Solving for H2, Initial residual = 0, Final residual = 0, No Iterations 0
DILUPBiCGStab:  Solving for H, Initial residual = 0, Final residual = 0, No Iterations 0
DILUPBiCGStab:  Solving for O, Initial residual = 0, Final residual = 0, No Iterations 0
DILUPBiCGStab:  Solving for O2, Initial residual = 0.00194200144, Final residual = 6.467952998e-05, No Iterations 1
DILUPBiCGStab:  Solving for OH, Initial residual = 0, Final residual = 0, No Iterations 0
DILUPBiCGStab:  Solving for H2O, Initial residual = 0, Final residual = 0, No Iterations 0
DILUPBiCGStab:  Solving for CH4, Initial residual = 0.001330568818, Final residual = 5.426507126e-05, No Iterations 1
DILUPBiCGStab:  Solving for CO, Initial residual = 0, Final residual = 0, No Iterations 0
DILUPBiCGStab:  Solving for CO2, Initial residual = 0, Final residual = 0, No Iterations 0
DICPCG:  Solving for G, Initial residual = 0.01079774413, Final residual = 9.502272996e-06, No Iterations 312
DILUPBiCGStab:  Solving for h, Initial residual = 0.006451636869, Final residual = 0.0001912217981, No Iterations 1
min/max(T) = 291, 300.0090892
DICPCG:  Solving for p, Initial residual = 0.129766497, Final residual = 0.001248770592, No Iterations 80
diagonal:  Solving for rho, Initial residual = 0, Final residual = 0, No Iterations 0
time step continuity errors : sum local = 4.888824503e-07, global = 5.067082846e-09, cumulative = -0.0001495009788
DICPCG:  Solving for p, Initial residual = 0.04083675497, Final residual = 0.0003991404809, No Iterations 68
diagonal:  Solving for rho, Initial residual = 0, Final residual = 0, No Iterations 0
time step continuity errors : sum local = 9.928844818e-08, global = -4.549321646e-09, cumulative = -0.0001495055281
DICPCG:  Solving for p, Initial residual = 0.01532242163, Final residual = 9.421984719e-08, No Iterations 154
diagonal:  Solving for rho, Initial residual = 0, Final residual = 0, No Iterations 0
time step continuity errors : sum local = 2.474374677e-11, global = 8.4535753e-13, cumulative = -0.0001495055273
DILUPBiCGStab:  Solving for epsilon, Initial residual = 0.01160044277, Final residual = 0.0001406833605, No Iterations 1
bounding epsilon, min: -8.51390351 max: 587369.8087 average: 22373.76763
DILUPBiCGStab:  Solving for k, Initial residual = 0.04307221175, Final residual = 0.001163689285, No Iterations 1
bounding k, min: -0.0007888999462 max: 24.39981387 average: 10.34833017
ExecutionTime = 184.22 s  ClockTime = 184 s

Time scales min/max:
    Flow        = 3.361244458e-06, 0.0001
    Temperature = 1e+300, 1e+300
    Composition = 1e+300, 1e+300
    Overall     = 3.361244458e-06, 0.0001
Time = 25

diagonal:  Solving for rho, Initial residual = 0, Final residual = 0, No Iterations 0
PIMPLE: iteration 1
DILUPBiCGStab:  Solving for Ux, Initial residual = 0.06511288611, Final residual = 0.003173758872, No Iterations 1
DILUPBiCGStab:  Solving for Uy, Initial residual = 0.04128022444, Final residual = 0.0004319322966, No Iterations 1
DILUPBiCGStab:  Solving for Uz, Initial residual = 0.0289656168, Final residual = 0.0007246386528, No Iterations 1
Chemistry time solved max/min : 0.05122655146 / 2.26006842e-06
DILUPBiCGStab:  Solving for H2, Initial residual = 0, Final residual = 0, No Iterations 0
DILUPBiCGStab:  Solving for H, Initial residual = 0, Final residual = 0, No Iterations 0
DILUPBiCGStab:  Solving for O, Initial residual = 0, Final residual = 0, No Iterations 0
[...]
DICPCG:  Solving for p, Initial residual = 7.032984062e-05, Final residual = 8.762942885e-08, No Iterations 102
diagonal:  Solving for rho, Initial residual = 0, Final residual = 0, No Iterations 0
time step continuity errors : sum local = 8.395057206e-12, global = -3.455395387e-14, cumulative = -0.0001495475505
DILUPBiCGStab:  Solving for epsilon, Initial residual = 0.00195416849, Final residual = 4.480297041e-05, No Iterations 1
bounding epsilon, min: -0.751687045 max: 16530.64988 average: 568.5327263
DILUPBiCGStab:  Solving for k, Initial residual = 0.004632515662, Final residual = 0.0002195058876, No Iterations 1
bounding k, min: -0.0001814738541 max: 3.596883424 average: 0.8166981736
ExecutionTime = 2077.76 s  ClockTime = 2079 s

Time scales min/max:
    Flow        = 2.658534766e-06, 0.0001
    Temperature = 1e+300, 1e+300
    Composition = 1e+300, 1e+300
    Overall     = 2.658534766e-06, 0.0001
Time = 277

diagonal:  Solving for rho, Initial residual = 0, Final residual = 0, No Iterations 0
PIMPLE: iteration 1
DILUPBiCGStab:  Solving for Ux, Initial residual = 0.0005372873247, Final residual = 1.399812996e-05, No Iterations 1
DILUPBiCGStab:  Solving for Uy, Initial residual = 0.0005640202295, Final residual = 1.438300595e-05, No Iterations 1
DILUPBiCGStab:  Solving for Uz, Initial residual = 0.0001334888778, Final residual = 4.99661876e-06, No Iterations 1
Chemistry time solved max/min : 0.04765465249 / 1.30476305e-05
DILUPBiCGStab:  Solving for H2, Initial residual = 0, Final residual = 0, No Iterations 0
DILUPBiCGStab:  Solving for H, Initial residual = 0, Final residual = 0, No Iterations 0
DILUPBiCGStab:  Solving for O, Initial residual = 0, Final residual = 0, No Iterations 0
DILUPBiCGStab:  Solving for O2, Initial residual = 0.0002195472912, Final residual = 6.569163409e-06, No Iterations 1
DILUPBiCGStab:  Solving for OH, Initial residual = 0, Final residual = 0, No Iterations 0
DILUPBiCGStab:  Solving for H2O, Initial residual = 0, Final residual = 0, No Iterations 0
DILUPBiCGStab:  Solving for CH4, Initial residual = 0.0001233216906, Final residual = 1.635727995e-06, No Iterations 1
DILUPBiCGStab:  Solving for CO, Initial residual = 0, Final residual = 0, No Iterations 0
DILUPBiCGStab:  Solving for CO2, Initial residual = 0, Final residual = 0, No Iterations 0
DICPCG:  Solving for G, Initial residual = 0.001188812119, Final residual = 9.970409101e-06, No Iterations 247
DILUPBiCGStab:  Solving for h, Initial residual = 0.0001359452555, Final residual = 2.368841538e-06, No Iterations 1
min/max(T) = 291, 299.9993988
DICPCG:  Solving for p, Initial residual = 0.001181511852, Final residual = 1.167809353e-05, No Iterations 81
diagonal:  Solving for rho, Initial residual = 0, Final residual = 0, No Iterations 0
time step continuity errors : sum local = 8.860078359e-10, global = -8.332593434e-11, cumulative = -0.0001495476338
DICPCG:  Solving for p, Initial residual = 0.0002327960581, Final residual = 2.257120138e-06, No Iterations 72
diagonal:  Solving for rho, Initial residual = 0, Final residual = 0, No Iterations 0
time step continuity errors : sum local = 1.819411149e-10, global = -2.305310762e-11, cumulative = -0.0001495476569
DICPCG:  Solving for p, Initial residual = 7.031201164e-05, Final residual = 9.612385288e-08, No Iterations 99
diagonal:  Solving for rho, Initial residual = 0, Final residual = 0, No Iterations 0
time step continuity errors : sum local = 9.191299543e-12, global = 2.208064352e-14, cumulative = -0.0001495476568
DILUPBiCGStab:  Solving for epsilon, Initial residual = 0.001974370548, Final residual = 4.840663689e-05, No Iterations 1
bounding epsilon, min: -0.8717406704 max: 16423.52852 average: 563.8195008
DILUPBiCGStab:  Solving for k, Initial residual = 0.004616334208, Final residual = 0.0002184799277, No Iterations 1
bounding k, min: -3.221489823e-05 max: 3.577102674 average: 0.8122226271
ExecutionTime = 2084.77 s  ClockTime = 2086 s

Time scales min/max:
    Flow        = 2.658407902e-06, 0.0001
    Temperature = 1e+300, 1e+300
    Composition = 1e+300, 1e+300
    Overall     = 2.658407902e-06, 0.0001
Time = 278

diagonal:  Solving for rho, Initial residual = 0, Final residual = 0, No Iterations 0
PIMPLE: iteration 1
DILUPBiCGStab:  Solving for Ux, Initial residual = 0.000531054293, Final residual = 1.387261066e-05, No Iterations 1
DILUPBiCGStab:  Solving for Uy, Initial residual = 0.0005570941016, Final residual = 1.424410835e-05, No Iterations 1
DILUPBiCGStab:  Solving for Uz, Initial residual = 0.00013393033, Final residual = 4.974248271e-06, No Iterations 1
Chemistry time solved max/min : 0.05169141263 / 1.308873216e-05
DILUPBiCGStab:  Solving for H2, Initial residual = 0, Final residual = 0, No Iterations 0
DILUPBiCGStab:  Solving for H, Initial residual = 0, Final residual = 0, No Iterations 0
DILUPBiCGStab:  Solving for O, Initial residual = 0, Final residual = 0, No Iterations 0
DILUPBiCGStab:  Solving for O2, Initial residual = 0.0002189962244, Final residual = 6.539979204e-06, No Iterations 1
DILUPBiCGStab:  Solving for OH, Initial residual = 0, Final residual = 0, No Iterations 0
DILUPBiCGStab:  Solving for H2O, Initial residual = 0, Final residual = 0, No Iterations 0
DILUPBiCGStab:  Solving for CH4, Initial residual = 0.0001229966568, Final residual = 1.621406026e-06, No Iterations 1
DILUPBiCGStab:  Solving for CO, Initial residual = 0, Final residual = 0, No Iterations 0
DILUPBiCGStab:  Solving for CO2, Initial residual = 0, Final residual = 0, No Iterations 0
DICPCG:  Solving for G, Initial residual = 0.001182012066, Final residual = 9.921247915e-06, No Iterations 243
DILUPBiCGStab:  Solving for h, Initial residual = 0.0001355276832, Final residual = 2.355257119e-06, No Iterations 1
min/max(T) = 291, 299.9993963
DICPCG:  Solving for p, Initial residual = 0.001218628601, Final residual = 1.16396389e-05, No Iterations 77
diagonal:  Solving for rho, Initial residual = 0, Final residual = 0, No Iterations 0
time step continuity errors : sum local = 8.913061619e-10, global = -6.594130652e-11, cumulative = -0.0001495477228
DICPCG:  Solving for p, Initial residual = 0.0002298644368, Final residual = 2.210942766e-06, No Iterations 52
diagonal:  Solving for rho, Initial residual = 0, Final residual = 0, No Iterations 0
time step continuity errors : sum local = 1.732604598e-10, global = -1.836271017e-11, cumulative = -0.0001495477411
DICPCG:  Solving for p, Initial residual = 6.886842369e-05, Final residual = 9.643706353e-08, No Iterations 99
diagonal:  Solving for rho, Initial residual = 0, Final residual = 0, No Iterations 0
time step continuity errors : sum local = 9.081230555e-12, global = -5.692505454e-14, cumulative = -0.0001495477412
DILUPBiCGStab:  Solving for epsilon, Initial residual = 0.002008609294, Final residual = 5.092333837e-05, No Iterations 1
bounding epsilon, min: -0.7159385883 max: 16317.74045 average: 559.1657875
DILUPBiCGStab:  Solving for k, Initial residual = 0.004601385495, Final residual = 0.000217486198, No Iterations 1
bounding k, min: -7.46557969e-05 max: 3.557465742 average: 0.8077827508
ExecutionTime = 2091.71 s  ClockTime = 2093 s

Time scales min/max:
    Flow        = 2.6582369e-06, 0.0001
    Temperature = 1e+300, 1e+300
    Composition = 1e+300, 1e+300
    Overall     = 2.6582369e-06, 0.0001
Time = 279

diagonal:  Solving for rho, Initial residual = 0, Final residual = 0, No Iterations 0
PIMPLE: iteration 1
DILUPBiCGStab:  Solving for Ux, Initial residual = 0.0005287705014, Final residual = 1.391236533e-05, No Iterations 1
DILUPBiCGStab:  Solving for Uy, Initial residual = 0.0005503265697, Final residual = 1.407078314e-05, No Iterations 1
DILUPBiCGStab:  Solving for Uz, Initial residual = 0.000134867829, Final residual = 4.879371277e-06, No Iterations 1
Chemistry time solved max/min : 0.3150503484 / 1.312970781e-05
DILUPBiCGStab:  Solving for H2, Initial residual = 0, Final residual = 0, No Iterations 0
DILUPBiCGStab:  Solving for H, Initial residual = 0, Final residual = 0, No Iterations 0
DILUPBiCGStab:  Solving for O, Initial residual = 0, Final residual = 0, No Iterations 0
DILUPBiCGStab:  Solving for O2, Initial residual = 0.0002185001739, Final residual = 6.511914835e-06, No Iterations 1
DILUPBiCGStab:  Solving for OH, Initial residual = 0, Final residual = 0, No Iterations 0
DILUPBiCGStab:  Solving for H2O, Initial residual = 0, Final residual = 0, No Iterations 0
DILUPBiCGStab:  Solving for CH4, Initial residual = 0.0001227296447, Final residual = 1.607544982e-06, No Iterations 1
DILUPBiCGStab:  Solving for CO, Initial residual = 0, Final residual = 0, No Iterations 0
DILUPBiCGStab:  Solving for CO2, Initial residual = 0, Final residual = 0, No Iterations 0
DICPCG:  Solving for G, Initial residual = 0.001183206374, Final residual = 9.921713277e-06, No Iterations 253
DILUPBiCGStab:  Solving for h, Initial residual = 0.000135148712, Final residual = 2.338355961e-06, No Iterations 1
min/max(T) = 291, 299.9993937
DICPCG:  Solving for p, Initial residual = 0.001217021002, Final residual = 1.214781202e-05, No Iterations 74
diagonal:  Solving for rho, Initial residual = 0, Final residual = 0, No Iterations 0
time step continuity errors : sum local = 7.981490166e-10, global = -1.647177961e-11, cumulative = -0.0001495477577
DICPCG:  Solving for p, Initial residual = 0.0002259922548, Final residual = 2.211392715e-06, No Iterations 47
diagonal:  Solving for rho, Initial residual = 0, Final residual = 0, No Iterations 0
time step continuity errors : sum local = 1.657040351e-10, global = 2.905528911e-11, cumulative = -0.0001495477286
DICPCG:  Solving for p, Initial residual = 6.619026989e-05, Final residual = 9.755265068e-08, No Iterations 84
diagonal:  Solving for rho, Initial residual = 0, Final residual = 0, No Iterations 0
time step continuity errors : sum local = 7.697645243e-12, global = -1.631436361e-12, cumulative = -0.0001495477302
DILUPBiCGStab:  Solving for epsilon, Initial residual = 0.001949971955, Final residual = 4.444316934e-05, No Iterations 1
bounding epsilon, min: -0.4631939768 max: 16213.20776 average: 554.5296993
DILUPBiCGStab:  Solving for k, Initial residual = 0.004585491724, Final residual = 0.0002164453465, No Iterations 1
bounding k, min: -9.221655408e-05 max: 3.537972216 average: 0.8033785203
ExecutionTime = 2098.6 s  ClockTime = 2100 s

Time scales min/max:
    Flow        = 2.658000419e-06, 0.0001
    Temperature = 1e+300, 1e+300
    Composition = 1e+300, 1e+300
    Overall     = 2.658000419e-06, 0.0001
Time = 280

diagonal:  Solving for rho, Initial residual = 0, Final residual = 0, No Iterations 0
PIMPLE: iteration 1
DILUPBiCGStab:  Solving for Ux, Initial residual = 0.0005218113026, Final residual = 1.354885498e-05, No Iterations 1
DILUPBiCGStab:  Solving for Uy, Initial residual = 0.0005443198248, Final residual = 1.394701534e-05, No Iterations 1
DILUPBiCGStab:  Solving for Uz, Initial residual = 0.0001353068707, Final residual = 4.944345884e-06, No Iterations 1
Chemistry time solved max/min : 0.07129731018 / 1.317058026e-05
DILUPBiCGStab:  Solving for H2, Initial residual = 0, Final residual = 0, No Iterations 0
DILUPBiCGStab:  Solving for H, Initial residual = 0, Final residual = 0, No Iterations 0
DILUPBiCGStab:  Solving for O, Initial residual = 0, Final residual = 0, No Iterations 0
DILUPBiCGStab:  Solving for O2, Initial residual = 0.0002179898494, Final residual = 6.484705158e-06, No Iterations 1
DILUPBiCGStab:  Solving for OH, Initial residual = 0, Final residual = 0, No Iterations 0
DILUPBiCGStab:  Solving for H2O, Initial residual = 0, Final residual = 0, No Iterations 0
DILUPBiCGStab:  Solving for CH4, Initial residual = 0.0001224452267, Final residual = 1.593900496e-06, No Iterations 1
DILUPBiCGStab:  Solving for CO, Initial residual = 0, Final residual = 0, No Iterations 0
DILUPBiCGStab:  Solving for CO2, Initial residual = 0, Final residual = 0, No Iterations 0
DICPCG:  Solving for G, Initial residual = 0.001181899587, Final residual = 9.764118849e-06, No Iterations 245
DILUPBiCGStab:  Solving for h, Initial residual = 0.0001347355112, Final residual = 2.317301809e-06, No Iterations 1
min/max(T) = 291, 299.9993909
DICPCG:  Solving for p, Initial residual = 0.001185614686, Final residual = 1.081774322e-05, No Iterations 60
diagonal:  Solving for rho, Initial residual = 0, Final residual = 0, No Iterations 0
time step continuity errors : sum local = 5.834463774e-10, global = -9.684477762e-11, cumulative = -0.0001495478271
DICPCG:  Solving for p, Initial residual = 0.0002196354225, Final residual = 2.103730112e-06, No Iterations 45
diagonal:  Solving for rho, Initial residual = 0, Final residual = 0, No Iterations 0
time step continuity errors : sum local = 1.632466188e-10, global = -1.841990926e-11, cumulative = -0.0001495478455
DICPCG:  Solving for p, Initial residual = 5.942665076e-05, Final residual = 9.487798775e-08, No Iterations 99
diagonal:  Solving for rho, Initial residual = 0, Final residual = 0, No Iterations 0
time step continuity errors : sum local = 8.527445282e-12, global = -3.316517678e-13, cumulative = -0.0001495478458
DILUPBiCGStab:  Solving for epsilon, Initial residual = 0.001998855539, Final residual = 5.047527901e-05, No Iterations 1
bounding epsilon, min: -0.8933131802 max: 16109.84826 average: 549.975585
DILUPBiCGStab:  Solving for k, Initial residual = 0.004570228832, Final residual = 0.0002154538774, No Iterations 1
bounding k, min: -9.937999171e-05 max: 3.518619199 average: 0.7990094431
ExecutionTime = 2105.56 s  ClockTime = 2107 s

Time scales min/max:
    Flow        = 2.657719773e-06, 0.0001
    Temperature = 1e+300, 1e+300
    Composition = 1e+300, 1e+300
    Overall     = 2.657719773e-06, 0.0001
Time = 281

diagonal:  Solving for rho, Initial residual = 0, Final residual = 0, No Iterations 0
PIMPLE: iteration 1
DILUPBiCGStab:  Solving for Ux, Initial residual = 0.0005159068682, Final residual = 1.347321926e-05, No Iterations 1
DILUPBiCGStab:  Solving for Uy, Initial residual = 0.0005384905052, Final residual = 1.382866671e-05, No Iterations 1
DILUPBiCGStab:  Solving for Uz, Initial residual = 0.0001356125341, Final residual = 4.966860949e-06, No Iterations 1
Chemistry time solved max/min : 0.04177660334 / 1.321137521e-05
DILUPBiCGStab:  Solving for H2, Initial residual = 0, Final residual = 0, No Iterations 0
DILUPBiCGStab:  Solving for H, Initial residual = 0, Final residual = 0, No Iterations 0
DILUPBiCGStab:  Solving for O, Initial residual = 0, Final residual = 0, No Iterations 0
DILUPBiCGStab:  Solving for O2, Initial residual = 0.0002174599897, Final residual = 6.457085645e-06, No Iterations 1
DILUPBiCGStab:  Solving for OH, Initial residual = 0, Final residual = 0, No Iterations 0
DILUPBiCGStab:  Solving for H2O, Initial residual = 0, Final residual = 0, No Iterations 0
DILUPBiCGStab:  Solving for CH4, Initial residual = 0.0001221350797, Final residual = 1.580092824e-06, No Iterations 1
DILUPBiCGStab:  Solving for CO, Initial residual = 0, Final residual = 0, No Iterations 0
DILUPBiCGStab:  Solving for CO2, Initial residual = 0, Final residual = 0, No Iterations 0
DICPCG:  Solving for G, Initial residual = 0.001177803485, Final residual = 9.79185322e-06, No Iterations 245
DILUPBiCGStab:  Solving for h, Initial residual = 0.0001343069635, Final residual = 2.293038742e-06, No Iterations 1
min/max(T) = 291, 299.9993881
DICPCG:  Solving for p, Initial residual = 0.001145268392, Final residual = 1.143856469e-05, No Iterations 60
diagonal:  Solving for rho, Initial residual = 0, Final residual = 0, No Iterations 0
time step continuity errors : sum local = 7.627094562e-10, global = -6.119370569e-10, cumulative = -0.0001495484578
DICPCG:  Solving for p, Initial residual = 0.0002146611546, Final residual = 2.088985718e-06, No Iterations 67
diagonal:  Solving for rho, Initial residual = 0, Final residual = 0, No Iterations 0
time step continuity errors : sum local = 1.641934551e-10, global = -2.564594142e-12, cumulative = -0.0001495484603
DICPCG:  Solving for p, Initial residual = 5.7346968e-05, Final residual = 9.769367495e-08, No Iterations 99
diagonal:  Solving for rho, Initial residual = 0, Final residual = 0, No Iterations 0
time step continuity errors : sum local = 8.951548833e-12, global = -2.353044269e-13, cumulative = -0.0001495484606
DILUPBiCGStab:  Solving for epsilon, Initial residual = 0.00194168754, Final residual = 4.359478062e-05, No Iterations 1
bounding epsilon, min: -0.8356037692 max: 16007.58757 average: 545.4299075
DILUPBiCGStab:  Solving for k, Initial residual = 0.004554399746, Final residual = 0.0002144205666, No Iterations 1
bounding k, min: -0.0001874593694 max: 3.499406614 average: 0.7946753866
ExecutionTime = 2112.91 s  ClockTime = 2114 s

Time scales min/max:
    Flow        = 2.657440271e-06, 0.0001
    Temperature = 1e+300, 1e+300
    Composition = 1e+300, 1e+300
    Overall     = 2.657440271e-06, 0.0001
Time = 282

diagonal:  Solving for rho, Initial residual = 0, Final residual = 0, No Iterations 0
PIMPLE: iteration 1
DILUPBiCGStab:  Solving for Ux, Initial residual = 0.0005139271413, Final residual = 1.339638823e-05, No Iterations 1
DILUPBiCGStab:  Solving for Uy, Initial residual = 0.000535197259, Final residual = 1.374897278e-05, No Iterations 1
DILUPBiCGStab:  Solving for Uz, Initial residual = 0.0001359101241, Final residual = 4.990818244e-06, No Iterations 1
Chemistry time solved max/min : 0.08220975939 / 1.325211634e-05
DILUPBiCGStab:  Solving for H2, Initial residual = 0, Final residual = 0, No Iterations 0
DILUPBiCGStab:  Solving for H, Initial residual = 0, Final residual = 0, No Iterations 0
DILUPBiCGStab:  Solving for O, Initial residual = 0, Final residual = 0, No Iterations 0
DILUPBiCGStab:  Solving for O2, Initial residual = 0.0002169535038, Final residual = 6.430196351e-06, No Iterations 1
DILUPBiCGStab:  Solving for OH, Initial residual = 0, Final residual = 0, No Iterations 0
DILUPBiCGStab:  Solving for H2O, Initial residual = 0, Final residual = 0, No Iterations 0
DILUPBiCGStab:  Solving for CH4, Initial residual = 0.0001218544813, Final residual = 1.566944402e-06, No Iterations 1
DILUPBiCGStab:  Solving for CO, Initial residual = 0, Final residual = 0, No Iterations 0
DILUPBiCGStab:  Solving for CO2, Initial residual = 0, Final residual = 0, No Iterations 0
DICPCG:  Solving for G, Initial residual = 0.001176716964, Final residual = 9.672500668e-06, No Iterations 256
DILUPBiCGStab:  Solving for h, Initial residual = 0.0001339281412, Final residual = 2.268963874e-06, No Iterations 1
min/max(T) = 291, 299.9993856
DICPCG:  Solving for p, Initial residual = 0.001095282908, Final residual = 1.080054812e-05, No Iterations 67
diagonal:  Solving for rho, Initial residual = 0, Final residual = 0, No Iterations 0
time step continuity errors : sum local = 7.82218732e-10, global = 3.250413093e-10, cumulative = -0.0001495481355
DICPCG:  Solving for p, Initial residual = 0.000212316264, Final residual = 1.919214051e-06, No Iterations 44
diagonal:  Solving for rho, Initial residual = 0, Final residual = 0, No Iterations 0
time step continuity errors : sum local = 1.506888935e-10, global = 3.817925128e-12, cumulative = -0.0001495481317
DICPCG:  Solving for p, Initial residual = 5.885582792e-05, Final residual = 9.685918155e-08, No Iterations 95
diagonal:  Solving for rho, Initial residual = 0, Final residual = 0, No Iterations 0
time step continuity errors : sum local = 8.920536088e-12, global = -3.630832194e-13, cumulative = -0.0001495481321
DILUPBiCGStab:  Solving for epsilon, Initial residual = 0.001938108594, Final residual = 4.38086773e-05, No Iterations 1
bounding epsilon, min: -0.889189779 max: 15906.34766 average: 540.9432503
DILUPBiCGStab:  Solving for k, Initial residual = 0.004538955378, Final residual = 0.0002134302296, No Iterations 1
bounding k, min: -0.0001303016561 max: 3.480332122 average: 0.7903761179
ExecutionTime = 2120.35 s  ClockTime = 2121 s

Time scales min/max:
    Flow        = 2.657131173e-06, 0.0001
